codeine
     RDKit          3D

  0  0  0  0  0  0  0  0  0  0999 V3000
M  V30 BEGIN CTAB
M  V30 COUNTS 43 47 0 0 1
M  V30 BEGIN ATOM
M  V30 1 C 0.353690 -0.472668 0.170152 0
M  V30 2 C -0.474338 -1.606464 0.145739 0
M  V30 3 C 0.189166 -2.849345 0.129927 0
M  V30 4 C 1.604843 -2.902066 0.111306 0
M  V30 5 C 2.388828 -1.712242 0.052996 0
M  V30 6 C 1.728894 -0.464472 0.059429 0
M  V30 7 C -0.099792 0.961293 0.220901 0 CFG=2
M  V30 8 C -1.373304 1.112684 -0.623067 0 CFG=2
M  V30 9 C -2.432249 0.145050 -0.029245 0 CFG=1
M  V30 10 C -1.971147 -1.340111 -0.028254 0
M  V30 11 C 1.177290 1.706611 -0.298708 0 CFG=2
M  V30 12 C 1.087872 2.131631 -1.793741 0 CFG=2
M  V30 13 C 0.089671 1.339604 -2.622636 0
M  V30 14 C -1.059537 0.892556 -2.092218 0
M  V30 15 O 3.764355 -1.693423 -0.032955 0
M  V30 16 O 2.361784 2.182201 -2.401630 0
M  V30 17 O 2.263590 0.780068 -0.093272 0
M  V30 18 N -2.779868 0.540903 1.348379 0
M  V30 19 C -0.442636 1.386373 1.667385 0
M  V30 20 C -1.626110 0.587419 2.254344 0
M  V30 21 C -3.563951 1.770098 1.414848 0
M  V30 22 C 4.450238 -2.936477 -0.033874 0
M  V30 23 H -0.383269 -3.764796 0.101534 0
M  V30 24 H 2.068070 -3.876731 0.096834 0
M  V30 25 H -1.733783 2.139539 -0.568516 0
M  V30 26 H -3.351684 0.205140 -0.613113 0
M  V30 27 H -2.526200 -1.920843 0.710015 0
M  V30 28 H -2.236944 -1.772259 -0.993436 0
M  V30 29 H 1.381541 2.597493 0.297027 0
M  V30 30 H 0.710745 3.154495 -1.822309 0
M  V30 31 H 0.304151 1.191538 -3.670987 0
M  V30 32 H -1.783378 0.366800 -2.697072 0
M  V30 33 H 2.790374 1.351294 -2.262596 0
M  V30 34 H -0.681843 2.450311 1.685603 0
M  V30 35 H 0.428099 1.265176 2.312993 0
M  V30 36 H -1.306366 -0.433480 2.462327 0
M  V30 37 H -1.923759 1.001332 3.218457 0
M  V30 38 H -3.929604 1.926341 2.430187 0
M  V30 39 H -2.986078 2.649503 1.132942 0
M  V30 40 H -4.433189 1.706662 0.759741 0
M  V30 41 H 5.523714 -2.754277 -0.084372 0
M  V30 42 H 4.255169 -3.501395 0.878656 0
M  V30 43 H 4.176962 -3.541045 -0.899710 0
M  V30 END ATOM
M  V30 BEGIN BOND
M  V30 1 1 2 1
M  V30 2 2 3 2
M  V30 3 1 4 3
M  V30 4 2 5 4
M  V30 5 2 6 1
M  V30 6 1 6 5
M  V30 7 1 7 1
M  V30 8 1 8 7
M  V30 9 1 9 8
M  V30 10 1 10 2
M  V30 11 1 10 9
M  V30 12 1 11 7
M  V30 13 1 12 11
M  V30 14 1 13 12
M  V30 15 1 14 8
M  V30 16 2 14 13
M  V30 17 1 15 5
M  V30 18 1 16 12
M  V30 19 1 17 6
M  V30 20 1 17 11
M  V30 21 1 18 9
M  V30 22 1 7 19 CFG=1
M  V30 23 1 20 18
M  V30 24 1 20 19
M  V30 25 1 21 18
M  V30 26 1 22 15
M  V30 27 1 23 3
M  V30 28 1 24 4
M  V30 29 1 8 25 CFG=3
M  V30 30 1 9 26 CFG=3
M  V30 31 1 27 10
M  V30 32 1 28 10
M  V30 33 1 11 29 CFG=1
M  V30 34 1 12 30 CFG=1
M  V30 35 1 31 13
M  V30 36 1 32 14
M  V30 37 1 33 16
M  V30 38 1 34 19
M  V30 39 1 35 19
M  V30 40 1 36 20
M  V30 41 1 37 20
M  V30 42 1 38 21
M  V30 43 1 39 21
M  V30 44 1 40 21
M  V30 45 1 41 22
M  V30 46 1 42 22
M  V30 47 1 43 22
M  V30 END BOND
M  V30 END CTAB
M  END
>  <i_f3d_flags>  (1) 
0

>  <New_Or_Updated_From_Original_Merck_Dataset>  (1) 
0

>  <PRIMARY_SOM>  (1) 
21

>  <r_f3d_energy>  (1) 
69.235254999999995

>  <r_f3d_relative_energy>  (1) 
0

>  <r_user_macromodel_energy>  (1) 
299.38709999999998

>  <s_m_subgroup_title>  (1) 
codeine

>  <s_m_subgroupid>  (1) 
1

>  <Citation>  (1) 
Tateishi et al.,Drug Metab. Disp.,24,761,1996

>  <ID>  (1) 
codeine

$$$$
codeine
     RDKit          3D

  0  0  0  0  0  0  0  0  0  0999 V3000
M  V30 BEGIN CTAB
M  V30 COUNTS 43 47 0 0 1
M  V30 BEGIN ATOM
M  V30 1 C 0.366621 -0.500165 0.199672 0
M  V30 2 C -0.465036 -1.631598 0.199802 0
M  V30 3 C 0.194493 -2.876745 0.197427 0
M  V30 4 C 1.609598 -2.934495 0.168082 0
M  V30 5 C 2.396580 -1.748174 0.084120 0
M  V30 6 C 1.740778 -0.498395 0.076092 0
M  V30 7 C -0.082157 0.936025 0.230819 0 CFG=2
M  V30 8 C -1.360985 1.076302 -0.607607 0 CFG=2
M  V30 9 C -2.418976 0.122718 0.010170 0 CFG=1
M  V30 10 C -1.962394 -1.363587 0.032579 0
M  V30 11 C 1.193420 1.669145 -0.310075 0 CFG=2
M  V30 12 C 1.087227 2.080582 -1.808059 0 CFG=2
M  V30 13 C 0.090247 1.267974 -2.618185 0
M  V30 14 C -1.055259 0.827573 -2.074112 0
M  V30 15 O 3.771421 -1.735221 -0.013422 0
M  V30 16 O 2.354338 2.141299 -2.429904 0
M  V30 17 O 2.278096 0.741419 -0.102476 0
M  V30 18 N -2.755131 0.542015 1.383704 0
M  V30 19 C -0.414107 1.386748 1.671970 0
M  V30 20 C -1.594508 0.599446 2.280122 0
M  V30 21 C -3.535300 1.774206 1.435825 0
M  V30 22 C 4.453198 -2.980372 -0.002012 0
M  V30 23 H -0.381040 -3.790448 0.187621 0
M  V30 24 H 2.069626 -3.910685 0.165424 0
M  V30 25 H -1.718092 2.105083 -0.569648 0
M  V30 26 H -3.342267 0.176323 -0.568196 0
M  V30 27 H -2.513959 -1.930038 0.784259 0
M  V30 28 H -2.236789 -1.810419 -0.923348 0
M  V30 29 H 1.406714 2.565625 0.273765 0
M  V30 30 H 0.698609 3.098910 -1.838117 0
M  V30 31 H 0.302545 1.097186 -3.663571 0
M  V30 32 H -1.778914 0.284006 -2.663516 0
M  V30 33 H 2.249137 2.514639 -3.291385 0
M  V30 34 H -0.651492 2.451198 1.673109 0
M  V30 35 H 0.460913 1.275225 2.313712 0
M  V30 36 H -1.275226 -0.419038 2.500563 0
M  V30 37 H -1.883898 1.028475 3.240145 0
M  V30 38 H -3.888022 1.950298 2.452302 0
M  V30 39 H -2.958875 2.646750 1.130524 0
M  V30 40 H -4.412720 1.700519 0.792674 0
M  V30 41 H 5.526207 -2.802746 -0.071379 0
M  V30 42 H 4.269530 -3.528082 0.923347 0
M  V30 43 H 4.165861 -3.599464 -0.852821 0
M  V30 END ATOM
M  V30 BEGIN BOND
M  V30 1 1 2 1
M  V30 2 2 3 2
M  V30 3 1 4 3
M  V30 4 2 5 4
M  V30 5 2 6 1
M  V30 6 1 6 5
M  V30 7 1 7 1
M  V30 8 1 8 7
M  V30 9 1 9 8
M  V30 10 1 10 2
M  V30 11 1 10 9
M  V30 12 1 11 7
M  V30 13 1 12 11
M  V30 14 1 13 12
M  V30 15 1 14 8
M  V30 16 2 14 13
M  V30 17 1 15 5
M  V30 18 1 16 12
M  V30 19 1 17 6
M  V30 20 1 17 11
M  V30 21 1 18 9
M  V30 22 1 7 19 CFG=1
M  V30 23 1 20 18
M  V30 24 1 20 19
M  V30 25 1 21 18
M  V30 26 1 22 15
M  V30 27 1 23 3
M  V30 28 1 24 4
M  V30 29 1 8 25 CFG=3
M  V30 30 1 9 26 CFG=3
M  V30 31 1 27 10
M  V30 32 1 28 10
M  V30 33 1 11 29 CFG=1
M  V30 34 1 12 30 CFG=1
M  V30 35 1 31 13
M  V30 36 1 32 14
M  V30 37 1 33 16
M  V30 38 1 34 19
M  V30 39 1 35 19
M  V30 40 1 36 20
M  V30 41 1 37 20
M  V30 42 1 38 21
M  V30 43 1 39 21
M  V30 44 1 40 21
M  V30 45 1 41 22
M  V30 46 1 42 22
M  V30 47 1 43 22
M  V30 END BOND
M  V30 END CTAB
M  END
>  <i_f3d_flags>  (2) 
0

>  <New_Or_Updated_From_Original_Merck_Dataset>  (2) 
0

>  <PRIMARY_SOM>  (2) 
21

>  <r_f3d_energy>  (2) 
70.337433000000004

>  <r_f3d_relative_energy>  (2) 
1.1021779999999901

>  <r_user_macromodel_energy>  (2) 
331.05709999999999

>  <s_m_subgroupid>  (2) 
1

>  <Citation>  (2) 
Tateishi et al.,Drug Metab. Disp.,24,761,1996

>  <ID>  (2) 
codeine

$$$$
