clozapine
     RDKit          3D

  0  0  0  0  0  0  0  0  0  0999 V3000
M  V30 BEGIN CTAB
M  V30 COUNTS 42 45 0 0 1
M  V30 BEGIN ATOM
M  V30 1 C -2.273152 1.505781 0.395210 0
M  V30 2 C -2.728698 2.650636 1.085268 0
M  V30 3 C -4.103281 2.906444 1.245248 0
M  V30 4 C -5.048161 2.022151 0.697486 0
M  V30 5 C -4.612755 0.881364 0.000704 0
M  V30 6 C -3.235925 0.611741 -0.146365 0
M  V30 7 N -2.879105 -0.563344 -0.804665 0
M  V30 8 C -1.991483 -1.469670 -0.230080 0
M  V30 9 C -2.396328 -2.818193 -0.145913 0
M  V30 10 C -1.586600 -3.768186 0.501123 0
M  V30 11 C -0.366000 -3.369960 1.071636 0
M  V30 12 C 0.051463 -2.029995 0.970920 0
M  V30 13 C -0.741890 -1.063771 0.302715 0
M  V30 14 C -0.185575 0.329558 0.130383 0
M  V30 15 N -0.886565 1.420214 0.203014 0
M  V30 16 N 1.180611 0.367749 -0.153306 0
M  V30 17 C 1.685768 -0.283989 -1.361610 0
M  V30 18 C 3.184264 -0.610247 -1.232948 0
M  V30 19 N 3.933545 0.620087 -0.986900 0
M  V30 20 C 3.480404 1.186695 0.282189 0
M  V30 21 C 1.984042 1.540273 0.191343 0
M  V30 22 C 5.354356 0.315044 -0.904459 0
M  V30 23 Cl -4.627648 4.310910 2.099264 0
M  V30 24 H -2.013240 3.353469 1.487806 0
M  V30 25 H -6.104728 2.215252 0.810942 0
M  V30 26 H -5.345590 0.201331 -0.409254 0
M  V30 27 H -3.665226 -1.008616 -1.255384 0
M  V30 28 H -3.345845 -3.126267 -0.559289 0
M  V30 29 H -1.907765 -4.797016 0.570269 0
M  V30 30 H 0.256370 -4.093748 1.577092 0
M  V30 31 H 1.004485 -1.755394 1.399831 0
M  V30 32 H 1.518378 0.374991 -2.214854 0
M  V30 33 H 1.136272 -1.202502 -1.569013 0
M  V30 34 H 3.536808 -1.075514 -2.154198 0
M  V30 35 H 3.348504 -1.326882 -0.426147 0
M  V30 36 H 4.054802 2.086373 0.506069 0
M  V30 37 H 3.654403 0.482925 1.098061 0
M  V30 38 H 1.654655 1.948430 1.147990 0
M  V30 39 H 1.825330 2.318025 -0.557138 0
M  V30 40 H 5.929320 1.222706 -0.717853 0
M  V30 41 H 5.564576 -0.394215 -0.102564 0
M  V30 42 H 5.707187 -0.114636 -1.842616 0
M  V30 END ATOM
M  V30 BEGIN BOND
M  V30 1 1 2 1
M  V30 2 2 3 2
M  V30 3 1 4 3
M  V30 4 2 5 4
M  V30 5 2 6 1
M  V30 6 1 6 5
M  V30 7 1 7 6
M  V30 8 1 8 7
M  V30 9 1 9 8
M  V30 10 2 10 9
M  V30 11 1 11 10
M  V30 12 2 12 11
M  V30 13 2 13 8
M  V30 14 1 13 12
M  V30 15 1 14 13
M  V30 16 1 15 1
M  V30 17 2 15 14
M  V30 18 1 16 14
M  V30 19 1 17 16
M  V30 20 1 18 17
M  V30 21 1 19 18
M  V30 22 1 20 19
M  V30 23 1 21 16
M  V30 24 1 21 20
M  V30 25 1 22 19
M  V30 26 1 23 3
M  V30 27 1 24 2
M  V30 28 1 25 4
M  V30 29 1 26 5
M  V30 30 1 27 7
M  V30 31 1 28 9
M  V30 32 1 29 10
M  V30 33 1 30 11
M  V30 34 1 31 12
M  V30 35 1 32 17
M  V30 36 1 33 17
M  V30 37 1 34 18
M  V30 38 1 35 18
M  V30 39 1 36 20
M  V30 40 1 37 20
M  V30 41 1 38 21
M  V30 42 1 39 21
M  V30 43 1 40 22
M  V30 44 1 41 22
M  V30 45 1 42 22
M  V30 END BOND
M  V30 END CTAB
M  END
>  <i_f3d_flags>  (1) 
0

>  <New_Or_Updated_From_Original_Merck_Dataset>  (1) 
1

>  <PRIMARY_SOM>  (1) 
22

>  <SECONDARY_SOM>  (1) 
19

>  <r_f3d_energy>  (1) 
54.515267999999999

>  <r_f3d_relative_energy>  (1) 
0

>  <r_user_macromodel_energy>  (1) 
232.15819999999999

>  <s_m_subgroup_title>  (1) 
clozapine

>  <s_m_subgroupid>  (1) 
1

>  <Citation>  (1) 
Fang et al.,Naunyn-Schm. Arch. Pharma.,358,592,1998

>  <DOI>  (1) 
10.1007/PL00005298

>  <ID>  (1) 
clozapine

$$$$
clozapine
     RDKit          3D

  0  0  0  0  0  0  0  0  0  0999 V3000
M  V30 BEGIN CTAB
M  V30 COUNTS 42 45 0 0 1
M  V30 BEGIN ATOM
M  V30 1 C -2.273152 1.505781 -0.395208 0
M  V30 2 C -2.728698 2.650636 -1.085266 0
M  V30 3 C -4.103281 2.906444 -1.245245 0
M  V30 4 C -5.048161 2.022151 -0.697483 0
M  V30 5 C -4.612755 0.881364 -0.000702 0
M  V30 6 C -3.235924 0.611741 0.146367 0
M  V30 7 N -2.879105 -0.563344 0.804666 0
M  V30 8 C -1.991483 -1.469670 0.230081 0
M  V30 9 C -2.396328 -2.818193 0.145915 0
M  V30 10 C -1.586601 -3.768187 -0.501123 0
M  V30 11 C -0.366001 -3.369960 -1.071636 0
M  V30 12 C 0.051462 -2.029995 -0.970920 0
M  V30 13 C -0.741891 -1.063771 -0.302714 0
M  V30 14 C -0.185575 0.329558 -0.130383 0
M  V30 15 N -0.886565 1.420214 -0.203013 0
M  V30 16 N 1.180612 0.367748 0.153306 0
M  V30 17 C 1.685769 -0.283990 1.361610 0
M  V30 18 C 3.184264 -0.610248 1.232947 0
M  V30 19 N 3.933545 0.620087 0.986900 0
M  V30 20 C 3.480404 1.186695 -0.282189 0
M  V30 21 C 1.984042 1.540273 -0.191342 0
M  V30 22 C 5.354357 0.315043 0.904458 0
M  V30 23 Cl -4.627649 4.310910 -2.099261 0
M  V30 24 H -2.013240 3.353470 -1.487804 0
M  V30 25 H -6.104728 2.215252 -0.810939 0
M  V30 26 H -5.345590 0.201331 0.409256 0
M  V30 27 H -3.665225 -1.008616 1.255386 0
M  V30 28 H -3.345845 -3.126267 0.559291 0
M  V30 29 H -1.907766 -4.797016 -0.570268 0
M  V30 30 H 0.256369 -4.093748 -1.577093 0
M  V30 31 H 1.004484 -1.755394 -1.399831 0
M  V30 32 H 1.136273 -1.202503 1.569013 0
M  V30 33 H 1.518379 0.374990 2.214854 0
M  V30 34 H 3.348504 -1.326882 0.426145 0
M  V30 35 H 3.536809 -1.075515 2.154196 0
M  V30 36 H 3.654403 0.482925 -1.098062 0
M  V30 37 H 4.054802 2.086373 -0.506068 0
M  V30 38 H 1.825330 2.318025 0.557139 0
M  V30 39 H 1.654655 1.948431 -1.147989 0
M  V30 40 H 5.929320 1.222706 0.717851 0
M  V30 41 H 5.707188 -0.114636 1.842614 0
M  V30 42 H 5.564577 -0.394216 0.102563 0
M  V30 END ATOM
M  V30 BEGIN BOND
M  V30 1 1 2 1
M  V30 2 2 3 2
M  V30 3 1 4 3
M  V30 4 2 5 4
M  V30 5 2 6 1
M  V30 6 1 6 5
M  V30 7 1 7 6
M  V30 8 1 8 7
M  V30 9 1 9 8
M  V30 10 2 10 9
M  V30 11 1 11 10
M  V30 12 2 12 11
M  V30 13 2 13 8
M  V30 14 1 13 12
M  V30 15 1 14 13
M  V30 16 1 15 1
M  V30 17 2 15 14
M  V30 18 1 16 14
M  V30 19 1 17 16
M  V30 20 1 18 17
M  V30 21 1 19 18
M  V30 22 1 20 19
M  V30 23 1 21 16
M  V30 24 1 21 20
M  V30 25 1 22 19
M  V30 26 1 23 3
M  V30 27 1 24 2
M  V30 28 1 25 4
M  V30 29 1 26 5
M  V30 30 1 27 7
M  V30 31 1 28 9
M  V30 32 1 29 10
M  V30 33 1 30 11
M  V30 34 1 31 12
M  V30 35 1 32 17
M  V30 36 1 33 17
M  V30 37 1 34 18
M  V30 38 1 35 18
M  V30 39 1 36 20
M  V30 40 1 37 20
M  V30 41 1 38 21
M  V30 42 1 39 21
M  V30 43 1 40 22
M  V30 44 1 41 22
M  V30 45 1 42 22
M  V30 END BOND
M  V30 END CTAB
M  END
>  <i_f3d_flags>  (2) 
0

>  <New_Or_Updated_From_Original_Merck_Dataset>  (2) 
1

>  <PRIMARY_SOM>  (2) 
22

>  <SECONDARY_SOM>  (2) 
19

>  <r_f3d_energy>  (2) 
54.515267999999999

>  <r_f3d_relative_energy>  (2) 
0

>  <r_user_macromodel_energy>  (2) 
232.15809999999999

>  <s_m_subgroupid>  (2) 
1

>  <Citation>  (2) 
Fang et al.,Naunyn-Schm. Arch. Pharma.,358,592,1998

>  <DOI>  (2) 
10.1007/PL00005298

>  <ID>  (2) 
clozapine

$$$$
clozapine
     RDKit          3D

  0  0  0  0  0  0  0  0  0  0999 V3000
M  V30 BEGIN CTAB
M  V30 COUNTS 42 45 0 0 1
M  V30 BEGIN ATOM
M  V30 1 C -1.853291 1.228707 -0.812089 0
M  V30 2 C -2.265604 2.375169 -1.526308 0
M  V30 3 C -3.629904 2.665647 -1.713964 0
M  V30 4 C -4.607693 1.814636 -1.171309 0
M  V30 5 C -4.215523 0.673175 -0.450027 0
M  V30 6 C -2.849186 0.369438 -0.274188 0
M  V30 7 N -2.534700 -0.804931 0.406487 0
M  V30 8 C -1.664716 -1.741874 -0.145375 0
M  V30 9 C -2.108710 -3.078087 -0.229244 0
M  V30 10 C -1.317313 -4.055293 -0.857955 0
M  V30 11 C -0.076806 -3.696448 -1.411476 0
M  V30 12 C 0.378410 -2.368750 -1.312245 0
M  V30 13 C -0.395293 -1.376117 -0.660300 0
M  V30 14 C 0.198052 0.002194 -0.488877 0
M  V30 15 N -0.473344 1.108947 -0.592419 0
M  V30 16 N 1.561225 0.008475 -0.173239 0
M  V30 17 C 2.066583 -0.718991 0.989715 0
M  V30 18 C 2.078677 0.197041 2.233864 0
M  V30 19 N 2.887227 1.400484 2.015418 0
M  V30 20 C 2.437160 2.105025 0.810975 0
M  V30 21 C 2.409115 1.172789 -0.422609 0
M  V30 22 C 4.318372 1.119316 1.997744 0
M  V30 23 Cl -4.101186 4.072131 -2.595268 0
M  V30 24 H -1.524351 3.052634 -1.925545 0
M  V30 25 H -5.656360 2.033987 -1.307700 0
M  V30 26 H -4.973116 0.018761 -0.043613 0
M  V30 27 H -3.340289 -1.223232 0.848650 0
M  V30 28 H -3.074514 -3.355391 0.167965 0
M  V30 29 H -1.667848 -5.074458 -0.927867 0
M  V30 30 H 0.531117 -4.441158 -1.903831 0
M  V30 31 H 1.344509 -2.123980 -1.729640 0
M  V30 32 H 3.065140 -1.098010 0.771974 0
M  V30 33 H 1.454681 -1.596701 1.198638 0
M  V30 34 H 2.450177 -0.344533 3.104333 0
M  V30 35 H 1.058605 0.502005 2.471386 0
M  V30 36 H 3.079107 2.966825 0.625024 0
M  V30 37 H 1.437442 2.499709 0.995814 0
M  V30 38 H 2.050378 1.720933 -1.294794 0
M  V30 39 H 3.413960 0.835536 -0.677487 0
M  V30 40 H 4.883459 2.046320 1.895951 0
M  V30 41 H 4.621890 0.649208 2.933602 0
M  V30 42 H 4.604445 0.458843 1.179830 0
M  V30 END ATOM
M  V30 BEGIN BOND
M  V30 1 1 2 1
M  V30 2 2 3 2
M  V30 3 1 4 3
M  V30 4 2 5 4
M  V30 5 2 6 1
M  V30 6 1 6 5
M  V30 7 1 7 6
M  V30 8 1 8 7
M  V30 9 1 9 8
M  V30 10 2 10 9
M  V30 11 1 11 10
M  V30 12 2 12 11
M  V30 13 2 13 8
M  V30 14 1 13 12
M  V30 15 1 14 13
M  V30 16 1 15 1
M  V30 17 2 15 14
M  V30 18 1 16 14
M  V30 19 1 17 16
M  V30 20 1 18 17
M  V30 21 1 19 18
M  V30 22 1 20 19
M  V30 23 1 21 16
M  V30 24 1 21 20
M  V30 25 1 22 19
M  V30 26 1 23 3
M  V30 27 1 24 2
M  V30 28 1 25 4
M  V30 29 1 26 5
M  V30 30 1 27 7
M  V30 31 1 28 9
M  V30 32 1 29 10
M  V30 33 1 30 11
M  V30 34 1 31 12
M  V30 35 1 32 17
M  V30 36 1 33 17
M  V30 37 1 34 18
M  V30 38 1 35 18
M  V30 39 1 36 20
M  V30 40 1 37 20
M  V30 41 1 38 21
M  V30 42 1 39 21
M  V30 43 1 40 22
M  V30 44 1 41 22
M  V30 45 1 42 22
M  V30 END BOND
M  V30 END CTAB
M  END
>  <i_f3d_flags>  (3) 
0

>  <New_Or_Updated_From_Original_Merck_Dataset>  (3) 
1

>  <PRIMARY_SOM>  (3) 
22

>  <SECONDARY_SOM>  (3) 
19

>  <r_f3d_energy>  (3) 
59.524242000000001

>  <r_f3d_relative_energy>  (3) 
5.0089739999999896

>  <r_user_macromodel_energy>  (3) 
248.96950000000001

>  <s_m_subgroupid>  (3) 
1

>  <Citation>  (3) 
Fang et al.,Naunyn-Schm. Arch. Pharma.,358,592,1998

>  <DOI>  (3) 
10.1007/PL00005298

>  <ID>  (3) 
clozapine

$$$$
clozapine
     RDKit          3D

  0  0  0  0  0  0  0  0  0  0999 V3000
M  V30 BEGIN CTAB
M  V30 COUNTS 42 45 0 0 1
M  V30 BEGIN ATOM
M  V30 1 C -1.853292 1.228697 0.812097 0
M  V30 2 C -2.265605 2.375157 1.526321 0
M  V30 3 C -3.629907 2.665627 1.713986 0
M  V30 4 C -4.607694 1.814614 1.171331 0
M  V30 5 C -4.215523 0.673154 0.450046 0
M  V30 6 C -2.849186 0.369423 0.274200 0
M  V30 7 N -2.534697 -0.804943 -0.406477 0
M  V30 8 C -1.664706 -1.741883 0.145379 0
M  V30 9 C -2.108693 -3.078098 0.229243 0
M  V30 10 C -1.317286 -4.055303 0.857943 0
M  V30 11 C -0.076778 -3.696454 1.411462 0
M  V30 12 C 0.378428 -2.368755 1.312233 0
M  V30 13 C -0.395282 -1.376122 0.660297 0
M  V30 14 C 0.198054 0.002191 0.488878 0
M  V30 15 N -0.473345 1.108941 0.592425 0
M  V30 16 N 1.561229 0.008481 0.173237 0
M  V30 17 C 2.066587 -0.718979 -0.989721 0
M  V30 18 C 2.078663 0.197055 -2.233869 0
M  V30 19 N 2.887204 1.400505 -2.015427 0
M  V30 20 C 2.437142 2.105040 -0.810975 0
M  V30 21 C 2.409113 1.172800 0.422608 0
M  V30 22 C 4.318352 1.119350 -1.997760 0
M  V30 23 Cl -4.101190 4.072103 2.595297 0
M  V30 24 H -1.524353 3.052624 1.925553 0
M  V30 25 H -5.656360 2.033964 1.307725 0
M  V30 26 H -4.973114 0.018740 0.043630 0
M  V30 27 H -3.340286 -1.223244 -0.848638 0
M  V30 28 H -3.074498 -3.355404 -0.167962 0
M  V30 29 H -1.667817 -5.074471 0.927853 0
M  V30 30 H 0.531154 -4.441164 1.903805 0
M  V30 31 H 1.344527 -2.123981 1.729629 0
M  V30 32 H 1.454690 -1.596691 -1.198642 0
M  V30 33 H 3.065147 -1.097992 -0.771989 0
M  V30 34 H 1.058588 0.502012 -2.471382 0
M  V30 35 H 2.450163 -0.344515 -3.104343 0
M  V30 36 H 1.437421 2.499716 -0.995808 0
M  V30 37 H 3.079081 2.966844 -0.625024 0
M  V30 38 H 3.413964 0.835554 0.677474 0
M  V30 39 H 2.050380 1.720938 1.294795 0
M  V30 40 H 4.883430 2.046360 -1.895973 0
M  V30 41 H 4.604438 0.458881 -1.179848 0
M  V30 42 H 4.621868 0.649246 -2.933621 0
M  V30 END ATOM
M  V30 BEGIN BOND
M  V30 1 1 2 1
M  V30 2 2 3 2
M  V30 3 1 4 3
M  V30 4 2 5 4
M  V30 5 2 6 1
M  V30 6 1 6 5
M  V30 7 1 7 6
M  V30 8 1 8 7
M  V30 9 1 9 8
M  V30 10 2 10 9
M  V30 11 1 11 10
M  V30 12 2 12 11
M  V30 13 2 13 8
M  V30 14 1 13 12
M  V30 15 1 14 13
M  V30 16 1 15 1
M  V30 17 2 15 14
M  V30 18 1 16 14
M  V30 19 1 17 16
M  V30 20 1 18 17
M  V30 21 1 19 18
M  V30 22 1 20 19
M  V30 23 1 21 16
M  V30 24 1 21 20
M  V30 25 1 22 19
M  V30 26 1 23 3
M  V30 27 1 24 2
M  V30 28 1 25 4
M  V30 29 1 26 5
M  V30 30 1 27 7
M  V30 31 1 28 9
M  V30 32 1 29 10
M  V30 33 1 30 11
M  V30 34 1 31 12
M  V30 35 1 32 17
M  V30 36 1 33 17
M  V30 37 1 34 18
M  V30 38 1 35 18
M  V30 39 1 36 20
M  V30 40 1 37 20
M  V30 41 1 38 21
M  V30 42 1 39 21
M  V30 43 1 40 22
M  V30 44 1 41 22
M  V30 45 1 42 22
M  V30 END BOND
M  V30 END CTAB
M  END
>  <i_f3d_flags>  (4) 
0

>  <New_Or_Updated_From_Original_Merck_Dataset>  (4) 
1

>  <PRIMARY_SOM>  (4) 
22

>  <SECONDARY_SOM>  (4) 
19

>  <r_f3d_energy>  (4) 
59.524242999999998

>  <r_f3d_relative_energy>  (4) 
5.0089750000000004

>  <r_user_macromodel_energy>  (4) 
248.96940000000001

>  <s_m_subgroupid>  (4) 
1

>  <Citation>  (4) 
Fang et al.,Naunyn-Schm. Arch. Pharma.,358,592,1998

>  <DOI>  (4) 
10.1007/PL00005298

>  <ID>  (4) 
clozapine

$$$$
