FELODIPINE
     RDKit          3D

  0  0  0  0  0  0  0  0  0  0999 V3000
M  V30 BEGIN CTAB
M  V30 COUNTS 44 45 0 0 1
M  V30 BEGIN ATOM
M  V30 1 C -0.313766 0.065567 -0.503795 0 CFG=2
M  V30 2 C 0.133332 -0.784681 0.698158 0
M  V30 3 C 0.375623 1.442651 -0.594529 0
M  V30 4 C -1.844142 0.172187 -0.660023 0
M  V30 5 C -0.106615 -0.385388 2.040495 0
M  V30 6 C 0.804382 -2.004384 0.453250 0
M  V30 7 C -0.342670 2.579485 -0.777526 0
M  V30 8 C 1.859331 1.478207 -0.447192 0
M  V30 9 C -2.453279 1.371712 -0.836326 0
M  V30 10 C -2.630035 -1.093009 -0.588780 0
M  V30 11 C 0.332145 -1.204408 3.106538 0
M  V30 12 Cl -0.933084 1.093285 2.402314 0
M  V30 13 C 1.235029 -2.815988 1.517314 0
M  V30 14 N -1.722793 2.547742 -0.898505 0
M  V30 15 C 0.227890 3.986415 -0.896301 0
M  V30 16 O 2.446553 0.360973 -0.929670 0
M  V30 17 O 2.481976 2.397921 0.086849 0
M  V30 18 C -3.949382 1.594914 -1.010967 0
M  V30 19 O -1.953532 -2.139641 -1.100712 0
M  V30 20 O -3.753146 -1.187093 -0.090003 0
M  V30 21 C 1.000664 -2.414473 2.843179 0
M  V30 22 Cl 0.059480 -0.743565 4.749745 0
M  V30 23 C 3.852442 0.174704 -0.829706 0
M  V30 24 C -2.529527 -3.434293 -1.077416 0
M  V30 25 C 4.230440 -0.425039 0.531227 0
M  V30 26 H 0.012586 -0.454941 -1.405406 0
M  V30 27 H 0.995001 -2.324559 -0.560613 0
M  V30 28 H 1.747731 -3.744999 1.315817 0
M  V30 29 H -2.216619 3.417340 -1.039808 0
M  V30 30 H 0.653876 4.308742 0.053943 0
M  V30 31 H 1.005832 4.024583 -1.659353 0
M  V30 32 H -0.539583 4.709926 -1.174371 0
M  V30 33 H -4.482858 1.349116 -0.092432 0
M  V30 34 H -4.175901 2.634019 -1.253955 0
M  V30 35 H -4.339925 0.975706 -1.819181 0
M  V30 36 H 1.334229 -3.037416 3.659982 0
M  V30 37 H 4.383569 1.112156 -1.000072 0
M  V30 38 H 4.161667 -0.505136 -1.623673 0
M  V30 39 H -1.843259 -4.152503 -1.525874 0
M  V30 40 H -2.731349 -3.751096 -0.053440 0
M  V30 41 H -3.462460 -3.455395 -1.642012 0
M  V30 42 H 5.306373 -0.585515 0.596713 0
M  V30 43 H 3.942311 0.232833 1.351441 0
M  V30 44 H 3.741469 -1.386673 0.684685 0
M  V30 END ATOM
M  V30 BEGIN BOND
M  V30 1 1 2 1
M  V30 2 1 3 1
M  V30 3 1 4 1
M  V30 4 2 5 2
M  V30 5 1 6 2
M  V30 6 2 7 3
M  V30 7 1 8 3
M  V30 8 2 9 4
M  V30 9 1 10 4
M  V30 10 1 11 5
M  V30 11 1 12 5
M  V30 12 2 13 6
M  V30 13 1 14 7
M  V30 14 1 14 9
M  V30 15 1 15 7
M  V30 16 1 16 8
M  V30 17 2 17 8
M  V30 18 1 18 9
M  V30 19 1 19 10
M  V30 20 2 20 10
M  V30 21 2 21 11
M  V30 22 1 21 13
M  V30 23 1 22 11
M  V30 24 1 23 16
M  V30 25 1 24 19
M  V30 26 1 25 23
M  V30 27 1 1 26 CFG=3
M  V30 28 1 27 6
M  V30 29 1 28 13
M  V30 30 1 29 14
M  V30 31 1 30 15
M  V30 32 1 31 15
M  V30 33 1 32 15
M  V30 34 1 33 18
M  V30 35 1 34 18
M  V30 36 1 35 18
M  V30 37 1 36 21
M  V30 38 1 37 23
M  V30 39 1 38 23
M  V30 40 1 39 24
M  V30 41 1 40 24
M  V30 42 1 41 24
M  V30 43 1 42 25
M  V30 44 1 43 25
M  V30 45 1 44 25
M  V30 END BOND
M  V30 END CTAB
M  END
>  <i_f3d_flags>  (1) 
0

>  <New_Or_Updated_From_Original_Merck_Dataset>  (1) 
1

>  <r_f3d_energy>  (1) 
20.394020000000001

>  <r_f3d_relative_energy>  (1) 
0

>  <r_user_macromodel_energy>  (1) 
165.17250000000001

>  <s_m_subgroup_title>  (1) 
FELODIPINE

>  <s_m_subgroupid>  (1) 
1

>  <Citation>  (1) 
Walsky et al.,Drug Metab. Disp.,32,647,2004

>  <ID>  (1) 
FELODIPINE

>  <PRIMARY_SOM>  (1) 
14 1

$$$$
FELODIPINE
     RDKit          3D

  0  0  0  0  0  0  0  0  0  0999 V3000
M  V30 BEGIN CTAB
M  V30 COUNTS 44 45 0 0 1
M  V30 BEGIN ATOM
M  V30 1 C -0.329999 0.051755 -0.494153 0 CFG=2
M  V30 2 C 0.134339 -0.759137 0.728214 0
M  V30 3 C 0.392399 1.404063 -0.664669 0
M  V30 4 C -1.861401 0.194881 -0.606791 0
M  V30 5 C -0.049703 -0.296846 2.059049 0
M  V30 6 C 0.764833 -2.006241 0.514575 0
M  V30 7 C -0.300631 2.552304 -0.872305 0
M  V30 8 C 1.880135 1.403739 -0.563811 0
M  V30 9 C -2.443416 1.402392 -0.816966 0
M  V30 10 C -2.678325 -1.043372 -0.455689 0
M  V30 11 C 0.403200 -1.081694 3.144641 0
M  V30 12 Cl -0.823988 1.218260 2.383351 0
M  V30 13 C 1.209903 -2.783407 1.598091 0
M  V30 14 N -1.684176 2.553967 -0.950689 0
M  V30 15 C 0.303340 3.937019 -1.063943 0
M  V30 16 O 2.421549 0.254579 -1.024677 0
M  V30 17 O 2.543423 2.323628 -0.081524 0
M  V30 18 C -3.937643 1.659684 -0.957598 0
M  V30 19 O -2.045469 -2.130936 -0.937001 0
M  V30 20 O -3.788786 -1.083247 0.077603 0
M  V30 21 C 1.031050 -2.319657 2.912274 0
M  V30 22 Cl 0.197527 -0.544395 4.774322 0
M  V30 23 C 3.825381 0.036488 -0.970114 0
M  V30 24 C -2.656431 -3.406015 -0.839977 0
M  V30 25 C 4.242642 -0.517017 0.399076 0
M  V30 26 H -0.047397 -0.515162 -1.382634 0
M  V30 27 H 0.912670 -2.374995 -0.489845 0
M  V30 28 H 1.690885 -3.733823 1.420436 0
M  V30 29 H -2.158795 3.430648 -1.113189 0
M  V30 30 H 0.772911 4.280589 -0.141896 0
M  V30 31 H 1.053083 3.924952 -1.855616 0
M  V30 32 H -0.453741 4.672185 -1.340235 0
M  V30 33 H -4.370277 1.014174 -1.722656 0
M  V30 34 H -4.448577 1.473298 -0.012806 0
M  V30 35 H -4.143425 2.692010 -1.243755 0
M  V30 36 H 1.375773 -2.916182 3.744001 0
M  V30 37 H 4.371088 0.952893 -1.199264 0
M  V30 38 H 4.086830 -0.682451 -1.746625 0
M  V30 39 H -1.996306 -4.164613 -1.260129 0
M  V30 40 H -2.853027 -3.665392 0.201012 0
M  V30 41 H -3.597276 -3.429080 -1.391072 0
M  V30 42 H 5.316408 -0.701633 0.429599 0
M  V30 43 H 4.002155 0.180655 1.201592 0
M  V30 44 H 3.737284 -1.458852 0.611778 0
M  V30 END ATOM
M  V30 BEGIN BOND
M  V30 1 1 2 1
M  V30 2 1 3 1
M  V30 3 1 4 1
M  V30 4 2 5 2
M  V30 5 1 6 2
M  V30 6 2 7 3
M  V30 7 1 8 3
M  V30 8 2 9 4
M  V30 9 1 10 4
M  V30 10 1 11 5
M  V30 11 1 12 5
M  V30 12 2 13 6
M  V30 13 1 14 7
M  V30 14 1 14 9
M  V30 15 1 15 7
M  V30 16 1 16 8
M  V30 17 2 17 8
M  V30 18 1 18 9
M  V30 19 1 19 10
M  V30 20 2 20 10
M  V30 21 2 21 11
M  V30 22 1 21 13
M  V30 23 1 22 11
M  V30 24 1 23 16
M  V30 25 1 24 19
M  V30 26 1 25 23
M  V30 27 1 1 26 CFG=3
M  V30 28 1 27 6
M  V30 29 1 28 13
M  V30 30 1 29 14
M  V30 31 1 30 15
M  V30 32 1 31 15
M  V30 33 1 32 15
M  V30 34 1 33 18
M  V30 35 1 34 18
M  V30 36 1 35 18
M  V30 37 1 36 21
M  V30 38 1 37 23
M  V30 39 1 38 23
M  V30 40 1 39 24
M  V30 41 1 40 24
M  V30 42 1 41 24
M  V30 43 1 42 25
M  V30 44 1 43 25
M  V30 45 1 44 25
M  V30 END BOND
M  V30 END CTAB
M  END
>  <i_f3d_flags>  (2) 
0

>  <New_Or_Updated_From_Original_Merck_Dataset>  (2) 
1

>  <r_f3d_energy>  (2) 
20.433837

>  <r_f3d_relative_energy>  (2) 
0.039817000000002899

>  <r_user_macromodel_energy>  (2) 
165.20070000000001

>  <s_m_subgroupid>  (2) 
1

>  <Citation>  (2) 
Walsky et al.,Drug Metab. Disp.,32,647,2004

>  <ID>  (2) 
FELODIPINE

>  <PRIMARY_SOM>  (2) 
14 1

$$$$
FELODIPINE
     RDKit          3D

  0  0  0  0  0  0  0  0  0  0999 V3000
M  V30 BEGIN CTAB
M  V30 COUNTS 44 45 0 0 1
M  V30 BEGIN ATOM
M  V30 1 C -0.311087 0.047676 -0.512129 0 CFG=2
M  V30 2 C 0.117177 -0.757699 0.725274 0
M  V30 3 C 0.360650 1.436169 -0.563284 0
M  V30 4 C -1.845578 0.150613 -0.639952 0
M  V30 5 C 0.833580 -1.982499 0.637336 0
M  V30 6 C -0.216960 -0.245393 1.999232 0
M  V30 7 C -0.372250 2.575895 -0.638881 0
M  V30 8 C 1.851324 1.475204 -0.494158 0
M  V30 9 C -2.470921 1.353018 -0.713838 0
M  V30 10 C -2.616658 -1.127955 -0.652478 0
M  V30 11 C 1.203463 -2.664221 1.819828 0
M  V30 12 Cl 1.274065 -2.665690 -0.893415 0
M  V30 13 C 0.152197 -0.929504 3.170454 0
M  V30 14 N -1.755339 2.538744 -0.696066 0
M  V30 15 C 0.181466 3.993544 -0.700336 0
M  V30 16 O 2.415938 0.372646 -1.031307 0
M  V30 17 O 2.499975 2.383832 0.027921 0
M  V30 18 C -3.971035 1.573965 -0.853944 0
M  V30 19 O -1.907258 -2.145795 -1.174558 0
M  V30 20 O -3.757273 -1.258628 -0.203795 0
M  V30 21 C 0.862652 -2.138328 3.079817 0
M  V30 22 Cl 2.082705 -4.150520 1.748048 0
M  V30 23 C 3.825331 0.187426 -1.009681 0
M  V30 24 C -2.459934 -3.450288 -1.212141 0
M  V30 25 C 4.276982 -0.436686 0.317629 0
M  V30 26 H 0.013734 -0.454289 -1.421743 0
M  V30 27 H -0.761206 0.684437 2.080885 0
M  V30 28 H -0.108374 -0.525696 4.137696 0
M  V30 29 H -2.260615 3.410620 -0.764691 0
M  V30 30 H 0.662274 4.258099 0.241881 0
M  V30 31 H 0.911277 4.088604 -1.505130 0
M  V30 32 H -0.605657 4.726462 -0.883437 0
M  V30 33 H -4.491481 1.259066 0.050878 0
M  V30 34 H -4.209738 2.625266 -1.020875 0
M  V30 35 H -4.365904 1.009827 -1.699532 0
M  V30 36 H 1.147721 -2.662508 3.980100 0
M  V30 37 H 4.345318 1.129002 -1.192143 0
M  V30 38 H 4.090931 -0.477857 -1.831357 0
M  V30 39 H -1.747183 -4.140135 -1.664052 0
M  V30 40 H -2.685023 -3.805526 -0.205763 0
M  V30 41 H -3.375497 -3.468871 -1.804335 0
M  V30 42 H 5.355192 -0.595738 0.321774 0
M  V30 43 H 4.032737 0.205946 1.163801 0
M  V30 44 H 3.798300 -1.402224 0.480478 0
M  V30 END ATOM
M  V30 BEGIN BOND
M  V30 1 1 2 1
M  V30 2 1 3 1
M  V30 3 1 4 1
M  V30 4 2 5 2
M  V30 5 1 6 2
M  V30 6 2 7 3
M  V30 7 1 8 3
M  V30 8 2 9 4
M  V30 9 1 10 4
M  V30 10 1 11 5
M  V30 11 1 12 5
M  V30 12 2 13 6
M  V30 13 1 14 7
M  V30 14 1 14 9
M  V30 15 1 15 7
M  V30 16 1 16 8
M  V30 17 2 17 8
M  V30 18 1 18 9
M  V30 19 1 19 10
M  V30 20 2 20 10
M  V30 21 2 21 11
M  V30 22 1 21 13
M  V30 23 1 22 11
M  V30 24 1 23 16
M  V30 25 1 24 19
M  V30 26 1 25 23
M  V30 27 1 1 26 CFG=3
M  V30 28 1 27 6
M  V30 29 1 28 13
M  V30 30 1 29 14
M  V30 31 1 30 15
M  V30 32 1 31 15
M  V30 33 1 32 15
M  V30 34 1 33 18
M  V30 35 1 34 18
M  V30 36 1 35 18
M  V30 37 1 36 21
M  V30 38 1 37 23
M  V30 39 1 38 23
M  V30 40 1 39 24
M  V30 41 1 40 24
M  V30 42 1 41 24
M  V30 43 1 42 25
M  V30 44 1 43 25
M  V30 45 1 44 25
M  V30 END BOND
M  V30 END CTAB
M  END
>  <i_f3d_flags>  (3) 
0

>  <New_Or_Updated_From_Original_Merck_Dataset>  (3) 
1

>  <r_f3d_energy>  (3) 
20.459160000000001

>  <r_f3d_relative_energy>  (3) 
0.065140000000003098

>  <r_user_macromodel_energy>  (3) 
156.5266

>  <s_m_subgroupid>  (3) 
1

>  <Citation>  (3) 
Walsky et al.,Drug Metab. Disp.,32,647,2004

>  <ID>  (3) 
FELODIPINE

>  <PRIMARY_SOM>  (3) 
14 1

$$$$
FELODIPINE
     RDKit          3D

  0  0  0  0  0  0  0  0  0  0999 V3000
M  V30 BEGIN CTAB
M  V30 COUNTS 44 45 0 0 1
M  V30 BEGIN ATOM
M  V30 1 C -0.321861 0.039039 -0.504781 0 CFG=2
M  V30 2 C 0.113253 -0.731446 0.752074 0
M  V30 3 C 0.389826 1.403086 -0.623725 0
M  V30 4 C -1.855532 0.185152 -0.597075 0
M  V30 5 C 0.790393 -1.980133 0.694706 0
M  V30 6 C -0.173773 -0.161116 2.012722 0
M  V30 7 C -0.310399 2.561964 -0.717008 0
M  V30 8 C 1.882358 1.397365 -0.599179 0
M  V30 9 C -2.446394 1.403287 -0.692746 0
M  V30 10 C -2.663928 -1.069149 -0.549589 0
M  V30 11 C 1.170847 -2.626632 1.893557 0
M  V30 12 Cl 1.169307 -2.735617 -0.818378 0
M  V30 13 C 0.203952 -0.811144 3.200468 0
M  V30 14 N -1.695091 2.566099 -0.732299 0
M  V30 15 C 0.283639 3.958643 -0.843141 0
M  V30 16 O 2.396677 0.258558 -1.110545 0
M  V30 17 O 2.573992 2.303185 -0.130291 0
M  V30 18 C -3.942601 1.666731 -0.798656 0
M  V30 19 O -1.998121 -2.123398 -1.056292 0
M  V30 20 O -3.795964 -1.151531 -0.068909 0
M  V30 21 C 0.877345 -2.042835 3.140083 0
M  V30 22 Cl 2.004932 -4.139826 1.858300 0
M  V30 23 C 3.799567 0.028276 -1.119081 0
M  V30 24 C -2.589696 -3.411022 -1.039228 0
M  V30 25 C 4.264777 -0.575424 0.212881 0
M  V30 26 H -0.035929 -0.506637 -1.402254 0
M  V30 27 H -0.688749 0.786873 2.070874 0
M  V30 28 H -0.021774 -0.363860 4.157160 0
M  V30 29 H -2.175811 3.450409 -0.816488 0
M  V30 30 H 0.804427 4.237895 0.073236 0
M  V30 31 H 0.987897 4.004004 -1.674375 0
M  V30 32 H -0.486465 4.709903 -1.023862 0
M  V30 33 H -4.377341 1.096137 -1.620042 0
M  V30 34 H -4.447730 1.389311 0.126803 0
M  V30 35 H -4.154225 2.720664 -0.983946 0
M  V30 36 H 1.169342 -2.540530 4.053181 0
M  V30 37 H 4.344329 0.947512 -1.338658 0
M  V30 38 H 4.023134 -0.666071 -1.929015 0
M  V30 39 H -1.905692 -4.137043 -1.478522 0
M  V30 40 H -2.807546 -3.724522 -0.017522 0
M  V30 41 H -3.515778 -3.422183 -1.615155 0
M  V30 42 H 5.339024 -0.758641 0.198347 0
M  V30 43 H 4.052486 0.090943 1.049045 0
M  V30 44 H 3.768903 -1.526293 0.407317 0
M  V30 END ATOM
M  V30 BEGIN BOND
M  V30 1 1 2 1
M  V30 2 1 3 1
M  V30 3 1 4 1
M  V30 4 2 5 2
M  V30 5 1 6 2
M  V30 6 2 7 3
M  V30 7 1 8 3
M  V30 8 2 9 4
M  V30 9 1 10 4
M  V30 10 1 11 5
M  V30 11 1 12 5
M  V30 12 2 13 6
M  V30 13 1 14 7
M  V30 14 1 14 9
M  V30 15 1 15 7
M  V30 16 1 16 8
M  V30 17 2 17 8
M  V30 18 1 18 9
M  V30 19 1 19 10
M  V30 20 2 20 10
M  V30 21 2 21 11
M  V30 22 1 21 13
M  V30 23 1 22 11
M  V30 24 1 23 16
M  V30 25 1 24 19
M  V30 26 1 25 23
M  V30 27 1 1 26 CFG=3
M  V30 28 1 27 6
M  V30 29 1 28 13
M  V30 30 1 29 14
M  V30 31 1 30 15
M  V30 32 1 31 15
M  V30 33 1 32 15
M  V30 34 1 33 18
M  V30 35 1 34 18
M  V30 36 1 35 18
M  V30 37 1 36 21
M  V30 38 1 37 23
M  V30 39 1 38 23
M  V30 40 1 39 24
M  V30 41 1 40 24
M  V30 42 1 41 24
M  V30 43 1 42 25
M  V30 44 1 43 25
M  V30 45 1 44 25
M  V30 END BOND
M  V30 END CTAB
M  END
>  <i_f3d_flags>  (4) 
0

>  <New_Or_Updated_From_Original_Merck_Dataset>  (4) 
1

>  <r_f3d_energy>  (4) 
20.459788

>  <r_f3d_relative_energy>  (4) 
0.065768000000002005

>  <r_user_macromodel_energy>  (4) 
156.44399999999999

>  <s_m_subgroupid>  (4) 
1

>  <Citation>  (4) 
Walsky et al.,Drug Metab. Disp.,32,647,2004

>  <ID>  (4) 
FELODIPINE

>  <PRIMARY_SOM>  (4) 
14 1

$$$$
FELODIPINE
     RDKit          3D

  0  0  0  0  0  0  0  0  0  0999 V3000
M  V30 BEGIN CTAB
M  V30 COUNTS 44 45 0 0 1
M  V30 BEGIN ATOM
M  V30 1 C -0.354288 -0.031779 -0.262470 0 CFG=2
M  V30 2 C 0.071116 -0.879153 0.949253 0
M  V30 3 C 0.419126 1.294970 -0.404677 0
M  V30 4 C -1.878513 0.169930 -0.382842 0
M  V30 5 C -0.130245 -0.443834 2.286816 0
M  V30 6 C 0.682060 -2.133050 0.718776 0
M  V30 7 C -0.228849 2.471285 -0.598565 0
M  V30 8 C 1.905396 1.235386 -0.298050 0
M  V30 9 C -2.413780 1.401862 -0.575742 0
M  V30 10 C -2.741082 -1.039704 -0.252881 0
M  V30 11 C 0.280300 -1.265081 3.362291 0
M  V30 12 Cl -0.873625 1.082380 2.631211 0
M  V30 13 C 1.087495 -2.945049 1.792249 0
M  V30 14 N -1.610897 2.526199 -0.686249 0
M  V30 15 C 0.428502 3.834643 -0.765204 0
M  V30 16 O 2.402040 0.072047 -0.772117 0
M  V30 17 O 2.603250 2.123224 0.195261 0
M  V30 18 C -3.896573 1.718033 -0.716632 0
M  V30 19 O -2.141008 -2.144992 -0.736153 0
M  V30 20 O -3.857824 -1.045450 0.268586 0
M  V30 21 C 0.886948 -2.510495 3.113322 0
M  V30 22 Cl 0.048069 -0.763727 4.999787 0
M  V30 23 C 3.795586 -0.202166 -0.723159 0
M  V30 24 C -2.786855 -3.402428 -0.636121 0
M  V30 25 C 4.509309 0.378719 -1.950221 0
M  V30 26 H -0.087233 -0.594166 -1.158705 0
M  V30 27 H 0.843655 -2.480911 -0.291015 0
M  V30 28 H 1.552068 -3.901224 1.601666 0
M  V30 29 H -2.051052 3.422647 -0.837011 0
M  V30 30 H 1.179560 3.806772 -1.555361 0
M  V30 31 H -0.299086 4.603156 -1.030041 0
M  V30 32 H 0.908461 4.144107 0.163324 0
M  V30 33 H -4.350983 1.100207 -1.491771 0
M  V30 34 H -4.416961 1.537965 0.224457 0
M  V30 35 H -4.061714 2.761534 -0.988833 0
M  V30 36 H 1.199262 -3.134963 3.937426 0
M  V30 37 H 3.925798 -1.284241 -0.705785 0
M  V30 38 H 4.237052 0.178170 0.199190 0
M  V30 39 H -2.163203 -4.174491 -1.086545 0
M  V30 40 H -2.956522 -3.669149 0.407739 0
M  V30 41 H -3.745537 -3.392199 -1.155862 0
M  V30 42 H 5.570529 0.130853 -1.933101 0
M  V30 43 H 4.087566 -0.020840 -2.872816 0
M  V30 44 H 4.422695 1.464991 -1.983428 0
M  V30 END ATOM
M  V30 BEGIN BOND
M  V30 1 1 2 1
M  V30 2 1 3 1
M  V30 3 1 4 1
M  V30 4 2 5 2
M  V30 5 1 6 2
M  V30 6 2 7 3
M  V30 7 1 8 3
M  V30 8 2 9 4
M  V30 9 1 10 4
M  V30 10 1 11 5
M  V30 11 1 12 5
M  V30 12 2 13 6
M  V30 13 1 14 7
M  V30 14 1 14 9
M  V30 15 1 15 7
M  V30 16 1 16 8
M  V30 17 2 17 8
M  V30 18 1 18 9
M  V30 19 1 19 10
M  V30 20 2 20 10
M  V30 21 2 21 11
M  V30 22 1 21 13
M  V30 23 1 22 11
M  V30 24 1 23 16
M  V30 25 1 24 19
M  V30 26 1 25 23
M  V30 27 1 1 26 CFG=3
M  V30 28 1 27 6
M  V30 29 1 28 13
M  V30 30 1 29 14
M  V30 31 1 30 15
M  V30 32 1 31 15
M  V30 33 1 32 15
M  V30 34 1 33 18
M  V30 35 1 34 18
M  V30 36 1 35 18
M  V30 37 1 36 21
M  V30 38 1 37 23
M  V30 39 1 38 23
M  V30 40 1 39 24
M  V30 41 1 40 24
M  V30 42 1 41 24
M  V30 43 1 42 25
M  V30 44 1 43 25
M  V30 45 1 44 25
M  V30 END BOND
M  V30 END CTAB
M  END
>  <i_f3d_flags>  (5) 
0

>  <New_Or_Updated_From_Original_Merck_Dataset>  (5) 
1

>  <r_f3d_energy>  (5) 
20.980301000000001

>  <r_f3d_relative_energy>  (5) 
0.58628100000000305

>  <r_user_macromodel_energy>  (5) 
167.83170000000001

>  <s_m_subgroupid>  (5) 
1

>  <Citation>  (5) 
Walsky et al.,Drug Metab. Disp.,32,647,2004

>  <ID>  (5) 
FELODIPINE

>  <PRIMARY_SOM>  (5) 
14 1

$$$$
FELODIPINE
     RDKit          3D

  0  0  0  0  0  0  0  0  0  0999 V3000
M  V30 BEGIN CTAB
M  V30 COUNTS 44 45 0 0 1
M  V30 BEGIN ATOM
M  V30 1 C -0.318384 0.147537 -0.335669 0 CFG=2
M  V30 2 C 0.122648 -0.678198 0.885861 0
M  V30 3 C 0.473213 1.457535 -0.531148 0
M  V30 4 C -1.841600 0.371223 -0.426187 0
M  V30 5 C -0.027852 -0.203110 2.216368 0
M  V30 6 C 0.698310 -1.951537 0.671554 0
M  V30 7 C -0.161207 2.638688 -0.741767 0
M  V30 8 C 1.961247 1.376924 -0.458879 0
M  V30 9 C -2.361404 1.605926 -0.641058 0
M  V30 10 C -2.721019 -0.819287 -0.245174 0
M  V30 11 C 0.400254 -1.003197 3.301048 0
M  V30 12 Cl -0.730327 1.346633 2.540532 0
M  V30 13 C 1.121900 -2.742245 1.753767 0
M  V30 14 N -1.543849 2.713490 -0.799177 0
M  V30 15 C 0.511232 3.987112 -0.961011 0
M  V30 16 O 2.426033 0.187154 -0.886565 0
M  V30 17 O 2.687687 2.273230 -0.025550 0
M  V30 18 C -3.841692 1.942339 -0.761516 0
M  V30 19 O -2.153163 -1.946300 -0.716401 0
M  V30 20 O -3.823857 -0.791967 0.304333 0
M  V30 21 C 0.972823 -2.267629 3.067807 0
M  V30 22 Cl 0.233114 -0.452081 4.930483 0
M  V30 23 C 3.814309 -0.096383 -0.832919 0
M  V30 24 C -2.822764 -3.187350 -0.576078 0
M  V30 25 C 4.045414 -1.550820 -1.249969 0
M  V30 26 H -0.082033 -0.441228 -1.223602 0
M  V30 27 H 0.820790 -2.329965 -0.332833 0
M  V30 28 H 1.561501 -3.712582 1.575457 0
M  V30 29 H -1.973732 3.612304 -0.964918 0
M  V30 30 H 1.017137 4.315268 -0.052649 0
M  V30 31 H 1.242971 3.926608 -1.767013 0
M  V30 32 H -0.211569 4.758490 -1.230787 0
M  V30 33 H -4.320953 1.310892 -1.510112 0
M  V30 34 H -4.346589 1.797405 0.193868 0
M  V30 35 H -3.995898 2.980280 -1.059857 0
M  V30 36 H 1.298661 -2.876140 3.898596 0
M  V30 37 H 4.189790 0.064020 0.178919 0
M  V30 38 H 4.354596 0.578493 -1.497932 0
M  V30 39 H -2.217045 -3.984840 -1.006139 0
M  V30 40 H -2.992904 -3.419168 0.475973 0
M  V30 41 H -3.783474 -3.172333 -1.092160 0
M  V30 42 H 5.106728 -1.797457 -1.222575 0
M  V30 43 H 3.525657 -2.237794 -0.581700 0
M  V30 44 H 3.685319 -1.729952 -2.263234 0
M  V30 END ATOM
M  V30 BEGIN BOND
M  V30 1 1 2 1
M  V30 2 1 3 1
M  V30 3 1 4 1
M  V30 4 2 5 2
M  V30 5 1 6 2
M  V30 6 2 7 3
M  V30 7 1 8 3
M  V30 8 2 9 4
M  V30 9 1 10 4
M  V30 10 1 11 5
M  V30 11 1 12 5
M  V30 12 2 13 6
M  V30 13 1 14 7
M  V30 14 1 14 9
M  V30 15 1 15 7
M  V30 16 1 16 8
M  V30 17 2 17 8
M  V30 18 1 18 9
M  V30 19 1 19 10
M  V30 20 2 20 10
M  V30 21 2 21 11
M  V30 22 1 21 13
M  V30 23 1 22 11
M  V30 24 1 23 16
M  V30 25 1 24 19
M  V30 26 1 25 23
M  V30 27 1 1 26 CFG=3
M  V30 28 1 27 6
M  V30 29 1 28 13
M  V30 30 1 29 14
M  V30 31 1 30 15
M  V30 32 1 31 15
M  V30 33 1 32 15
M  V30 34 1 33 18
M  V30 35 1 34 18
M  V30 36 1 35 18
M  V30 37 1 36 21
M  V30 38 1 37 23
M  V30 39 1 38 23
M  V30 40 1 39 24
M  V30 41 1 40 24
M  V30 42 1 41 24
M  V30 43 1 42 25
M  V30 44 1 43 25
M  V30 45 1 44 25
M  V30 END BOND
M  V30 END CTAB
M  END
>  <i_f3d_flags>  (6) 
0

>  <New_Or_Updated_From_Original_Merck_Dataset>  (6) 
1

>  <r_f3d_energy>  (6) 
21.059263000000001

>  <r_f3d_relative_energy>  (6) 
0.66524300000000003

>  <r_user_macromodel_energy>  (6) 
165.02500000000001

>  <s_m_subgroupid>  (6) 
1

>  <Citation>  (6) 
Walsky et al.,Drug Metab. Disp.,32,647,2004

>  <ID>  (6) 
FELODIPINE

>  <PRIMARY_SOM>  (6) 
14 1

$$$$
FELODIPINE
     RDKit          3D

  0  0  0  0  0  0  0  0  0  0999 V3000
M  V30 BEGIN CTAB
M  V30 COUNTS 44 45 0 0 1
M  V30 BEGIN ATOM
M  V30 1 C -0.302739 0.143383 -0.341504 0 CFG=2
M  V30 2 C 0.101555 -0.680020 0.893872 0
M  V30 3 C 0.461733 1.475391 -0.491260 0
M  V30 4 C -1.825346 0.327369 -0.499640 0
M  V30 5 C -0.113450 -0.215488 2.219377 0
M  V30 6 C 0.709171 -1.941191 0.697613 0
M  V30 7 C -0.195015 2.642159 -0.715158 0
M  V30 8 C 1.947770 1.431819 -0.361602 0
M  V30 9 C -2.369065 1.550640 -0.720007 0
M  V30 10 C -2.678050 -0.890102 -0.383945 0
M  V30 11 C 0.284467 -1.013659 3.316972 0
M  V30 12 Cl -0.858621 1.318497 2.522299 0
M  V30 13 C 1.101391 -2.730547 1.792522 0
M  V30 14 N -1.575921 2.681905 -0.826089 0
M  V30 15 C 0.449266 4.010196 -0.894212 0
M  V30 16 O 2.458768 0.253167 -0.767949 0
M  V30 17 O 2.634950 2.346642 0.096576 0
M  V30 18 C -3.851317 1.847184 -0.903747 0
M  V30 19 O -2.061474 -1.988432 -0.861455 0
M  V30 20 O -3.803889 -0.905746 0.117378 0
M  V30 21 C 0.889417 -2.266089 3.101490 0
M  V30 22 Cl 0.039857 -0.474769 4.940755 0
M  V30 23 C 3.850597 0.003916 -0.660392 0
M  V30 24 C -2.714866 -3.244757 -0.808475 0
M  V30 25 C 4.130665 -1.449440 -1.050182 0
M  V30 26 H -0.009596 -0.431673 -1.221491 0
M  V30 27 H 0.880671 -2.311058 -0.302715 0
M  V30 28 H 1.565299 -3.691864 1.627472 0
M  V30 29 H -2.022189 3.571204 -0.999414 0
M  V30 30 H 1.216729 3.977112 -1.668082 0
M  V30 31 H -0.281611 4.764217 -1.189827 0
M  V30 32 H 0.905510 4.343613 0.038101 0
M  V30 33 H -4.277275 1.216770 -1.684809 0
M  V30 34 H -4.395277 1.669855 0.024261 0
M  V30 35 H -4.021512 2.885775 -1.190614 0
M  V30 36 H 1.191812 -2.872788 3.942442 0
M  V30 37 H 4.184714 0.183825 0.362456 0
M  V30 38 H 4.398824 0.683991 -1.313396 0
M  V30 39 H -2.078464 -4.011560 -1.249902 0
M  V30 40 H -2.925637 -3.529550 0.222991 0
M  V30 41 H -3.652994 -3.218798 -1.364418 0
M  V30 42 H 5.196078 -1.670070 -0.984653 0
M  V30 43 H 3.606344 -2.140250 -0.389481 0
M  V30 44 H 3.808727 -1.650764 -2.072158 0
M  V30 END ATOM
M  V30 BEGIN BOND
M  V30 1 1 2 1
M  V30 2 1 3 1
M  V30 3 1 4 1
M  V30 4 2 5 2
M  V30 5 1 6 2
M  V30 6 2 7 3
M  V30 7 1 8 3
M  V30 8 2 9 4
M  V30 9 1 10 4
M  V30 10 1 11 5
M  V30 11 1 12 5
M  V30 12 2 13 6
M  V30 13 1 14 7
M  V30 14 1 14 9
M  V30 15 1 15 7
M  V30 16 1 16 8
M  V30 17 2 17 8
M  V30 18 1 18 9
M  V30 19 1 19 10
M  V30 20 2 20 10
M  V30 21 2 21 11
M  V30 22 1 21 13
M  V30 23 1 22 11
M  V30 24 1 23 16
M  V30 25 1 24 19
M  V30 26 1 25 23
M  V30 27 1 1 26 CFG=3
M  V30 28 1 27 6
M  V30 29 1 28 13
M  V30 30 1 29 14
M  V30 31 1 30 15
M  V30 32 1 31 15
M  V30 33 1 32 15
M  V30 34 1 33 18
M  V30 35 1 34 18
M  V30 36 1 35 18
M  V30 37 1 36 21
M  V30 38 1 37 23
M  V30 39 1 38 23
M  V30 40 1 39 24
M  V30 41 1 40 24
M  V30 42 1 41 24
M  V30 43 1 42 25
M  V30 44 1 43 25
M  V30 45 1 44 25
M  V30 END BOND
M  V30 END CTAB
M  END
>  <i_f3d_flags>  (7) 
0

>  <New_Or_Updated_From_Original_Merck_Dataset>  (7) 
1

>  <r_f3d_energy>  (7) 
21.060865

>  <r_f3d_relative_energy>  (7) 
0.66684500000000202

>  <r_user_macromodel_energy>  (7) 
164.97049999999999

>  <s_m_subgroupid>  (7) 
1

>  <Citation>  (7) 
Walsky et al.,Drug Metab. Disp.,32,647,2004

>  <ID>  (7) 
FELODIPINE

>  <PRIMARY_SOM>  (7) 
14 1

$$$$
FELODIPINE
     RDKit          3D

  0  0  0  0  0  0  0  0  0  0999 V3000
M  V30 BEGIN CTAB
M  V30 COUNTS 44 45 0 0 1
M  V30 BEGIN ATOM
M  V30 1 C -0.296481 0.148982 -0.354973 0 CFG=2
M  V30 2 C 0.082298 -0.718363 0.858263 0
M  V30 3 C 0.440242 1.503473 -0.415024 0
M  V30 4 C -1.816122 0.305238 -0.564255 0
M  V30 5 C -0.198438 -0.319037 2.192575 0
M  V30 6 C 0.735809 -1.951428 0.632545 0
M  V30 7 C -0.235304 2.663497 -0.616236 0
M  V30 8 C 1.919827 1.489244 -0.220563 0
M  V30 9 C -2.379847 1.523904 -0.758146 0
M  V30 10 C -2.644570 -0.933514 -0.522086 0
M  V30 11 C 0.184020 -1.150872 3.270220 0
M  V30 12 Cl -1.004217 1.176669 2.530649 0
M  V30 13 C 1.113425 -2.774101 1.708058 0
M  V30 14 N -1.610623 2.676061 -0.787205 0
M  V30 15 C 0.381757 4.052658 -0.704873 0
M  V30 16 O 2.479477 0.347553 -0.666444 0
M  V30 17 O 2.560855 2.393664 0.318002 0
M  V30 18 C -3.860642 1.794300 -0.987836 0
M  V30 19 O -1.986145 -2.001456 -1.012302 0
M  V30 20 O -3.785930 -0.990911 -0.060625 0
M  V30 21 C 0.838813 -2.372604 3.026283 0
M  V30 22 Cl -0.139102 -0.690142 4.904313 0
M  V30 23 C 3.871728 0.127287 -0.509682 0
M  V30 24 C -2.604405 -3.276519 -1.005959 0
M  V30 25 C 4.207443 -1.298486 -0.953677 0
M  V30 26 H 0.043649 -0.379302 -1.247168 0
M  V30 27 H 0.956265 -2.272782 -0.374842 0
M  V30 28 H 1.615481 -3.711857 1.521440 0
M  V30 29 H -2.070959 3.561577 -0.941968 0
M  V30 30 H 1.181308 4.073927 -1.446074 0
M  V30 31 H -0.355307 4.802495 -0.995810 0
M  V30 32 H 0.790530 4.351722 0.260568 0
M  V30 33 H -4.434288 1.571751 -0.088041 0
M  V30 34 H -4.044748 2.838055 -1.245269 0
M  V30 35 H -4.242238 1.182025 -1.805449 0
M  V30 36 H 1.131692 -3.004045 3.852285 0
M  V30 37 H 4.158033 0.267295 0.533712 0
M  V30 38 H 4.429039 0.850673 -1.106069 0
M  V30 39 H -1.932726 -4.015149 -1.443042 0
M  V30 40 H -2.837422 -3.588801 0.012707 0
M  V30 41 H -3.526072 -3.265697 -1.589008 0
M  V30 42 H 5.274329 -1.495950 -0.849674 0
M  V30 43 H 3.671914 -2.032874 -0.351608 0
M  V30 44 H 3.937650 -1.458176 -1.997692 0
M  V30 END ATOM
M  V30 BEGIN BOND
M  V30 1 1 2 1
M  V30 2 1 3 1
M  V30 3 1 4 1
M  V30 4 2 5 2
M  V30 5 1 6 2
M  V30 6 2 7 3
M  V30 7 1 8 3
M  V30 8 2 9 4
M  V30 9 1 10 4
M  V30 10 1 11 5
M  V30 11 1 12 5
M  V30 12 2 13 6
M  V30 13 1 14 7
M  V30 14 1 14 9
M  V30 15 1 15 7
M  V30 16 1 16 8
M  V30 17 2 17 8
M  V30 18 1 18 9
M  V30 19 1 19 10
M  V30 20 2 20 10
M  V30 21 2 21 11
M  V30 22 1 21 13
M  V30 23 1 22 11
M  V30 24 1 23 16
M  V30 25 1 24 19
M  V30 26 1 25 23
M  V30 27 1 1 26 CFG=3
M  V30 28 1 27 6
M  V30 29 1 28 13
M  V30 30 1 29 14
M  V30 31 1 30 15
M  V30 32 1 31 15
M  V30 33 1 32 15
M  V30 34 1 33 18
M  V30 35 1 34 18
M  V30 36 1 35 18
M  V30 37 1 36 21
M  V30 38 1 37 23
M  V30 39 1 38 23
M  V30 40 1 39 24
M  V30 41 1 40 24
M  V30 42 1 41 24
M  V30 43 1 42 25
M  V30 44 1 43 25
M  V30 45 1 44 25
M  V30 END BOND
M  V30 END CTAB
M  END
>  <i_f3d_flags>  (8) 
0

>  <New_Or_Updated_From_Original_Merck_Dataset>  (8) 
1

>  <r_f3d_energy>  (8) 
21.062242999999999

>  <r_f3d_relative_energy>  (8) 
0.66822300000000101

>  <r_user_macromodel_energy>  (8) 
165.04589999999999

>  <s_m_subgroupid>  (8) 
1

>  <Citation>  (8) 
Walsky et al.,Drug Metab. Disp.,32,647,2004

>  <ID>  (8) 
FELODIPINE

>  <PRIMARY_SOM>  (8) 
14 1

$$$$
FELODIPINE
     RDKit          3D

  0  0  0  0  0  0  0  0  0  0999 V3000
M  V30 BEGIN CTAB
M  V30 COUNTS 44 45 0 0 1
M  V30 BEGIN ATOM
M  V30 1 C -0.337216 -0.055539 -0.261443 0 CFG=2
M  V30 2 C 0.059346 -0.864616 0.984033 0
M  V30 3 C 0.431844 1.278761 -0.358745 0
M  V30 4 C -1.862687 0.156273 -0.359740 0
M  V30 5 C 0.686846 -2.138268 0.908037 0
M  V30 6 C -0.214646 -0.306922 2.253295 0
M  V30 7 C -0.218206 2.467070 -0.442945 0
M  V30 8 C 1.922451 1.209709 -0.331113 0
M  V30 9 C -2.401034 1.399422 -0.443072 0
M  V30 10 C -2.723526 -1.063502 -0.336086 0
M  V30 11 C 1.027469 -2.823792 2.097215 0
M  V30 12 Cl 1.048852 -2.879556 -0.616126 0
M  V30 13 C 0.126289 -0.994157 3.431275 0
M  V30 14 N -1.601403 2.529996 -0.463641 0
M  V30 15 C 0.434862 3.838292 -0.556760 0
M  V30 16 O 2.388436 0.058743 -0.860080 0
M  V30 17 O 2.651007 2.079677 0.149840 0
M  V30 18 C -3.884042 1.726928 -0.555602 0
M  V30 19 O -2.099092 -2.137583 -0.854461 0
M  V30 20 O -3.861704 -1.104643 0.134977 0
M  V30 21 C 0.747658 -2.251893 3.352448 0
M  V30 22 Cl 1.792374 -4.372637 2.039939 0
M  V30 23 C 3.780759 -0.225199 -0.887119 0
M  V30 24 C -2.747412 -3.397805 -0.868900 0
M  V30 25 C 4.447601 0.411522 -2.113501 0
M  V30 26 H -0.070851 -0.598984 -1.166218 0
M  V30 27 H -0.691612 0.659774 2.326004 0
M  V30 28 H -0.088490 -0.556378 4.394919 0
M  V30 29 H -2.044010 3.434679 -0.541339 0
M  V30 30 H 1.146872 3.858701 -1.382520 0
M  V30 31 H -0.301725 4.621844 -0.740186 0
M  V30 32 H 0.959554 4.091518 0.364604 0
M  V30 33 H -4.337275 1.182570 -1.384712 0
M  V30 34 H -4.406442 1.463522 0.364233 0
M  V30 35 H -4.049288 2.790445 -0.733023 0
M  V30 36 H 1.010301 -2.778955 4.258057 0
M  V30 37 H 3.902334 -1.307630 -0.929795 0
M  V30 38 H 4.263625 0.105046 0.033723 0
M  V30 39 H -2.091243 -4.145301 -1.314375 0
M  V30 40 H -2.991926 -3.720766 0.143658 0
M  V30 41 H -3.665787 -3.356559 -1.455663 0
M  V30 42 H 5.505462 0.152654 -2.154975 0
M  V30 43 H 3.982327 0.064578 -3.036392 0
M  V30 44 H 4.373349 1.498965 -2.087725 0
M  V30 END ATOM
M  V30 BEGIN BOND
M  V30 1 1 2 1
M  V30 2 1 3 1
M  V30 3 1 4 1
M  V30 4 2 5 2
M  V30 5 1 6 2
M  V30 6 2 7 3
M  V30 7 1 8 3
M  V30 8 2 9 4
M  V30 9 1 10 4
M  V30 10 1 11 5
M  V30 11 1 12 5
M  V30 12 2 13 6
M  V30 13 1 14 7
M  V30 14 1 14 9
M  V30 15 1 15 7
M  V30 16 1 16 8
M  V30 17 2 17 8
M  V30 18 1 18 9
M  V30 19 1 19 10
M  V30 20 2 20 10
M  V30 21 2 21 11
M  V30 22 1 21 13
M  V30 23 1 22 11
M  V30 24 1 23 16
M  V30 25 1 24 19
M  V30 26 1 25 23
M  V30 27 1 1 26 CFG=3
M  V30 28 1 27 6
M  V30 29 1 28 13
M  V30 30 1 29 14
M  V30 31 1 30 15
M  V30 32 1 31 15
M  V30 33 1 32 15
M  V30 34 1 33 18
M  V30 35 1 34 18
M  V30 36 1 35 18
M  V30 37 1 36 21
M  V30 38 1 37 23
M  V30 39 1 38 23
M  V30 40 1 39 24
M  V30 41 1 40 24
M  V30 42 1 41 24
M  V30 43 1 42 25
M  V30 44 1 43 25
M  V30 45 1 44 25
M  V30 END BOND
M  V30 END CTAB
M  END
>  <i_f3d_flags>  (9) 
0

>  <New_Or_Updated_From_Original_Merck_Dataset>  (9) 
1

>  <r_f3d_energy>  (9) 
21.178753

>  <r_f3d_relative_energy>  (9) 
0.78473300000000301

>  <r_user_macromodel_energy>  (9) 
159.9907

>  <s_m_subgroupid>  (9) 
1

>  <Citation>  (9) 
Walsky et al.,Drug Metab. Disp.,32,647,2004

>  <ID>  (9) 
FELODIPINE

>  <PRIMARY_SOM>  (9) 
14 1

$$$$
FELODIPINE
     RDKit          3D

  0  0  0  0  0  0  0  0  0  0999 V3000
M  V30 BEGIN CTAB
M  V30 COUNTS 44 45 0 0 1
M  V30 BEGIN ATOM
M  V30 1 C -0.302596 0.125341 -0.375401 0 CFG=2
M  V30 2 C 0.093139 -0.687654 0.867922 0
M  V30 3 C 0.456223 1.467890 -0.476242 0
M  V30 4 C -1.829177 0.322811 -0.485121 0
M  V30 5 C 0.672695 -1.983443 0.787501 0
M  V30 6 C -0.129596 -0.110057 2.138076 0
M  V30 7 C -0.207637 2.644268 -0.621931 0
M  V30 8 C 1.948576 1.427706 -0.383312 0
M  V30 9 C -2.378949 1.554708 -0.622363 0
M  V30 10 C -2.685711 -0.893836 -0.402618 0
M  V30 11 C 1.028519 -2.666744 1.973295 0
M  V30 12 Cl 0.955787 -2.754769 -0.738428 0
M  V30 13 C 0.222058 -0.797120 3.312981 0
M  V30 14 N -1.589909 2.689379 -0.691477 0
M  V30 15 C 0.425218 4.023977 -0.752464 0
M  V30 16 O 2.463720 0.244473 -0.774827 0
M  V30 17 O 2.644222 2.354939 0.036128 0
M  V30 18 C -3.865725 1.859583 -0.748009 0
M  V30 19 O -2.113555 -1.956611 -0.995498 0
M  V30 20 O -3.775930 -0.937874 0.170645 0
M  V30 21 C 0.803489 -2.073736 3.229714 0
M  V30 22 Cl 1.746132 -4.237784 1.909779 0
M  V30 23 C 3.868523 0.039790 -0.732906 0
M  V30 24 C -2.770565 -3.212572 -0.983760 0
M  V30 25 C 4.193469 -1.427010 -1.022695 0
M  V30 26 H -0.023170 -0.414127 -1.278434 0
M  V30 27 H -0.572595 0.872391 2.213563 0
M  V30 28 H 0.047866 -0.343691 4.277675 0
M  V30 29 H -2.039850 3.585945 -0.809950 0
M  V30 30 H 1.165012 4.034477 -1.553543 0
M  V30 31 H -0.317903 4.788222 -0.984569 0
M  V30 32 H 0.911653 4.313855 0.179313 0
M  V30 33 H -4.316917 1.263060 -1.541460 0
M  V30 34 H -4.381345 1.644338 0.188150 0
M  V30 35 H -4.042073 2.909497 -0.986476 0
M  V30 36 H 1.076138 -2.599684 4.132962 0
M  V30 37 H 4.258557 0.312268 0.248955 0
M  V30 38 H 4.350932 0.684452 -1.468586 0
M  V30 39 H -2.168585 -3.949539 -1.515342 0
M  V30 40 H -2.915501 -3.565443 0.038056 0
M  V30 41 H -3.742739 -3.148325 -1.474185 0
M  V30 42 H 5.271098 -1.589682 -1.031795 0
M  V30 43 H 3.767142 -2.080078 -0.261268 0
M  V30 44 H 3.799854 -1.733611 -1.992055 0
M  V30 END ATOM
M  V30 BEGIN BOND
M  V30 1 1 2 1
M  V30 2 1 3 1
M  V30 3 1 4 1
M  V30 4 2 5 2
M  V30 5 1 6 2
M  V30 6 2 7 3
M  V30 7 1 8 3
M  V30 8 2 9 4
M  V30 9 1 10 4
M  V30 10 1 11 5
M  V30 11 1 12 5
M  V30 12 2 13 6
M  V30 13 1 14 7
M  V30 14 1 14 9
M  V30 15 1 15 7
M  V30 16 1 16 8
M  V30 17 2 17 8
M  V30 18 1 18 9
M  V30 19 1 19 10
M  V30 20 2 20 10
M  V30 21 2 21 11
M  V30 22 1 21 13
M  V30 23 1 22 11
M  V30 24 1 23 16
M  V30 25 1 24 19
M  V30 26 1 25 23
M  V30 27 1 1 26 CFG=3
M  V30 28 1 27 6
M  V30 29 1 28 13
M  V30 30 1 29 14
M  V30 31 1 30 15
M  V30 32 1 31 15
M  V30 33 1 32 15
M  V30 34 1 33 18
M  V30 35 1 34 18
M  V30 36 1 35 18
M  V30 37 1 36 21
M  V30 38 1 37 23
M  V30 39 1 38 23
M  V30 40 1 39 24
M  V30 41 1 40 24
M  V30 42 1 41 24
M  V30 43 1 42 25
M  V30 44 1 43 25
M  V30 45 1 44 25
M  V30 END BOND
M  V30 END CTAB
M  END
>  <i_f3d_flags>  (10) 
0

>  <New_Or_Updated_From_Original_Merck_Dataset>  (10) 
1

>  <r_f3d_energy>  (10) 
21.453347999999998

>  <r_f3d_relative_energy>  (10) 
1.059328

>  <r_user_macromodel_energy>  (10) 
157.9032

>  <s_m_subgroupid>  (10) 
1

>  <Citation>  (10) 
Walsky et al.,Drug Metab. Disp.,32,647,2004

>  <ID>  (10) 
FELODIPINE

>  <PRIMARY_SOM>  (10) 
14 1

$$$$
