dextromethorphan
     RDKit          3D

  0  0  0  0  0  0  0  0  0  0999 V3000
M  V30 BEGIN CTAB
M  V30 COUNTS 45 48 0 0 1
M  V30 BEGIN ATOM
M  V30 1 C 2.765984 1.376634 0.028690 0
M  V30 2 C 2.054627 0.160678 0.045760 0
M  V30 3 C 2.041354 2.590992 0.001886 0
M  V30 4 C 0.635887 2.574603 0.005732 0
M  V30 5 C -0.069874 1.355511 0.026829 0
M  V30 6 C 0.639220 0.124812 0.026871 0
M  V30 7 C -0.120772 -1.217598 0.078870 0 CFG=2
M  V30 8 C 0.597691 -2.372781 -0.675282 0
M  V30 9 C 0.653652 -2.148416 -2.195761 0
M  V30 10 C -0.760901 -1.994939 -2.770894 0
M  V30 11 C -1.524170 -0.869151 -2.059290 0
M  V30 12 C -1.544269 -1.074602 -0.525033 0 CFG=2
M  V30 13 C -2.299924 0.040768 0.224811 0 CFG=2
M  V30 14 C -1.593361 1.409242 0.048677 0
M  V30 15 N -2.460405 -0.395496 1.624540 0
M  V30 16 C -0.315224 -1.614197 1.561183 0
M  V30 17 C -1.194561 -0.606250 2.329625 0
M  V30 18 C -3.345918 0.465996 2.397896 0
M  V30 19 O 4.142051 1.296387 0.044223 0
M  V30 20 C 4.882215 2.508374 0.049684 0
M  V30 21 H 2.629615 -0.750431 0.084395 0
M  V30 22 H 2.539532 3.548374 -0.012823 0
M  V30 23 H 0.095407 3.509892 -0.003255 0
M  V30 24 H 0.056127 -3.303186 -0.497941 0
M  V30 25 H 1.595404 -2.558207 -0.281264 0
M  V30 26 H 1.156189 -2.988921 -2.675065 0
M  V30 27 H 1.246870 -1.262891 -2.425826 0
M  V30 28 H -1.304850 -2.933551 -2.658065 0
M  V30 29 H -0.709806 -1.793594 -3.841460 0
M  V30 30 H -2.544953 -0.824357 -2.439796 0
M  V30 31 H -1.061192 0.082637 -2.318576 0
M  V30 32 H -2.083707 -2.009551 -0.357666 0
M  V30 33 H -3.306987 0.121585 -0.186499 0
M  V30 34 H -1.900451 1.829516 -0.909491 0
M  V30 35 H -1.919089 2.135063 0.792030 0
M  V30 36 H 0.651159 -1.709618 2.057589 0
M  V30 37 H -0.782295 -2.598293 1.623215 0
M  V30 38 H -1.397392 -0.993884 3.328546 0
M  V30 39 H -0.673290 0.341376 2.466620 0
M  V30 40 H -3.570541 0.005167 3.360260 0
M  V30 41 H -2.901503 1.441246 2.595003 0
M  V30 42 H -4.291382 0.615735 1.875751 0
M  V30 43 H 5.947303 2.279053 0.077140 0
M  V30 44 H 4.693960 3.094483 -0.850833 0
M  V30 45 H 4.652567 3.111772 0.928980 0
M  V30 END ATOM
M  V30 BEGIN BOND
M  V30 1 1 2 1
M  V30 2 2 3 1
M  V30 3 1 4 3
M  V30 4 2 5 4
M  V30 5 2 6 2
M  V30 6 1 6 5
M  V30 7 1 7 6
M  V30 8 1 7 8 CFG=3
M  V30 9 1 9 8
M  V30 10 1 10 9
M  V30 11 1 11 10
M  V30 12 1 12 7
M  V30 13 1 12 11
M  V30 14 1 13 12
M  V30 15 1 14 5
M  V30 16 1 14 13
M  V30 17 1 15 13
M  V30 18 1 16 7
M  V30 19 1 17 15
M  V30 20 1 17 16
M  V30 21 1 18 15
M  V30 22 1 19 1
M  V30 23 1 20 19
M  V30 24 1 21 2
M  V30 25 1 22 3
M  V30 26 1 23 4
M  V30 27 1 24 8
M  V30 28 1 25 8
M  V30 29 1 26 9
M  V30 30 1 27 9
M  V30 31 1 28 10
M  V30 32 1 29 10
M  V30 33 1 30 11
M  V30 34 1 31 11
M  V30 35 1 12 32 CFG=3
M  V30 36 1 13 33 CFG=3
M  V30 37 1 34 14
M  V30 38 1 35 14
M  V30 39 1 36 16
M  V30 40 1 37 16
M  V30 41 1 38 17
M  V30 42 1 39 17
M  V30 43 1 40 18
M  V30 44 1 41 18
M  V30 45 1 42 18
M  V30 46 1 43 20
M  V30 47 1 44 20
M  V30 48 1 45 20
M  V30 END BOND
M  V30 END CTAB
M  END
>  <i_f3d_flags>  (1) 
0

>  <New_Or_Updated_From_Original_Merck_Dataset>  (1) 
0

>  <PRIMARY_SOM>  (1) 
18

>  <r_f3d_energy>  (1) 
44.106476000000001

>  <r_f3d_relative_energy>  (1) 
0

>  <r_user_macromodel_energy>  (1) 
182.65979999999999

>  <s_m_subgroup_title>  (1) 
dextromethorphan

>  <s_m_subgroupid>  (1) 
1

>  <Citation>  (1) 
Wang and Unadkat,Biopharm. Drug Disp.,20,341,1999

>  <ID>  (1) 
dextromethorphan

$$$$
dextromethorphan
     RDKit          3D

  0  0  0  0  0  0  0  0  0  0999 V3000
M  V30 BEGIN CTAB
M  V30 COUNTS 45 48 0 0 1
M  V30 BEGIN ATOM
M  V30 1 C 2.802923 1.551948 0.034462 0
M  V30 2 C 2.063334 0.343291 0.049290 0
M  V30 3 C 2.105915 2.773330 0.013722 0
M  V30 4 C 0.701487 2.794430 0.017702 0
M  V30 5 C -0.032535 1.592474 0.033584 0
M  V30 6 C 0.646815 0.344614 0.029939 0
M  V30 7 C -0.147741 -0.978675 0.077050 0 CFG=2
M  V30 8 C 0.539231 -2.152984 -0.677873 0
M  V30 9 C 0.611432 -1.922985 -2.196708 0
M  V30 10 C -0.795482 -1.728085 -2.778286 0
M  V30 11 C -1.530199 -0.583890 -2.065870 0
M  V30 12 C -1.564540 -0.796781 -0.532442 0 CFG=2
M  V30 13 C -2.295348 0.333270 0.220023 0 CFG=2
M  V30 14 C -1.554029 1.684284 0.054130 0
M  V30 15 N -2.471868 -0.105680 1.617069 0
M  V30 16 C -0.355726 -1.373530 1.558025 0
M  V30 17 C -1.213770 -0.347289 2.325948 0
M  V30 18 C -3.338894 0.773105 2.391539 0
M  V30 19 O 4.179835 1.620587 0.043690 0
M  V30 20 C 4.912890 0.404467 0.057673 0
M  V30 21 H 2.586726 -0.596303 0.086452 0
M  V30 22 H 2.653710 3.704299 0.003991 0
M  V30 23 H 0.184812 3.742891 0.012810 0
M  V30 24 H -0.033543 -3.066109 -0.508702 0
M  V30 25 H 1.527353 -2.374517 -0.278377 0
M  V30 26 H 1.093742 -2.774400 -2.677565 0
M  V30 27 H 1.230190 -1.052794 -2.418265 0
M  V30 28 H -1.366350 -2.651163 -2.670556 0
M  V30 29 H -0.733793 -1.525276 -3.847832 0
M  V30 30 H -2.546861 -0.506766 -2.452185 0
M  V30 31 H -1.037920 0.355166 -2.317674 0
M  V30 32 H -2.128307 -1.718498 -0.372722 0
M  V30 33 H -3.298527 0.440862 -0.194755 0
M  V30 34 H -1.849432 2.118885 -0.901280 0
M  V30 35 H -1.861437 2.412877 0.802743 0
M  V30 36 H 0.607085 -1.491240 2.056574 0
M  V30 37 H -0.845291 -2.346791 1.616972 0
M  V30 38 H -1.428342 -0.732039 3.323610 0
M  V30 39 H -0.671238 0.587825 2.466840 0
M  V30 40 H -3.582212 0.309803 3.348202 0
M  V30 41 H -2.868739 1.733872 2.600167 0
M  V30 42 H -4.276123 0.953216 1.864234 0
M  V30 43 H 5.979526 0.628204 0.055663 0
M  V30 44 H 4.700333 -0.178585 0.954776 0
M  V30 45 H 4.700906 -0.199319 -0.825804 0
M  V30 END ATOM
M  V30 BEGIN BOND
M  V30 1 1 2 1
M  V30 2 2 3 1
M  V30 3 1 4 3
M  V30 4 2 5 4
M  V30 5 2 6 2
M  V30 6 1 6 5
M  V30 7 1 7 6
M  V30 8 1 7 8 CFG=3
M  V30 9 1 9 8
M  V30 10 1 10 9
M  V30 11 1 11 10
M  V30 12 1 12 7
M  V30 13 1 12 11
M  V30 14 1 13 12
M  V30 15 1 14 5
M  V30 16 1 14 13
M  V30 17 1 15 13
M  V30 18 1 16 7
M  V30 19 1 17 15
M  V30 20 1 17 16
M  V30 21 1 18 15
M  V30 22 1 19 1
M  V30 23 1 20 19
M  V30 24 1 21 2
M  V30 25 1 22 3
M  V30 26 1 23 4
M  V30 27 1 24 8
M  V30 28 1 25 8
M  V30 29 1 26 9
M  V30 30 1 27 9
M  V30 31 1 28 10
M  V30 32 1 29 10
M  V30 33 1 30 11
M  V30 34 1 31 11
M  V30 35 1 12 32 CFG=3
M  V30 36 1 13 33 CFG=3
M  V30 37 1 34 14
M  V30 38 1 35 14
M  V30 39 1 36 16
M  V30 40 1 37 16
M  V30 41 1 38 17
M  V30 42 1 39 17
M  V30 43 1 40 18
M  V30 44 1 41 18
M  V30 45 1 42 18
M  V30 46 1 43 20
M  V30 47 1 44 20
M  V30 48 1 45 20
M  V30 END BOND
M  V30 END CTAB
M  END
>  <i_f3d_flags>  (2) 
0

>  <New_Or_Updated_From_Original_Merck_Dataset>  (2) 
0

>  <PRIMARY_SOM>  (2) 
18

>  <r_f3d_energy>  (2) 
44.129739999999998

>  <r_f3d_relative_energy>  (2) 
0.023263999999997498

>  <r_user_macromodel_energy>  (2) 
182.36580000000001

>  <s_m_subgroupid>  (2) 
1

>  <Citation>  (2) 
Wang and Unadkat,Biopharm. Drug Disp.,20,341,1999

>  <ID>  (2) 
dextromethorphan

$$$$
