midazolam
     RDKit          3D

  0  0  0  0  0  0  0  0  0  0999 V3000
M  V30 BEGIN CTAB
M  V30 COUNTS 36 39 0 0 1
M  V30 BEGIN ATOM
M  V30 1 C -1.338145 -2.942670 1.312207 0
M  V30 2 C -1.974154 -2.051339 0.431456 0
M  V30 3 C -1.399092 -0.793548 0.133724 0
M  V30 4 C -0.190324 -0.395914 0.779485 0
M  V30 5 C 0.430865 -1.310159 1.664189 0
M  V30 6 C -0.129809 -2.573324 1.924635 0
M  V30 7 Cl 0.657387 -3.659561 3.009065 0
M  V30 8 C 0.474123 0.937601 0.583343 0
M  V30 9 N -2.081750 0.112115 -0.718156 0
M  V30 10 C -2.650207 -0.205789 -1.902428 0
M  V30 11 N -3.236031 0.853624 -2.457429 0
M  V30 12 C -2.610505 -1.549117 -2.563876 0
M  V30 13 C -2.979164 1.919759 -1.594817 0
M  V30 14 C -2.232252 1.470575 -0.532691 0
M  V30 15 C -1.590852 2.153263 0.628081 0
M  V30 16 N -0.145880 2.057691 0.526833 0
M  V30 17 C 1.949670 0.975360 0.434221 0
M  V30 18 C 2.564415 0.144786 -0.529333 0
M  V30 19 C 2.748862 1.822768 1.239064 0
M  V30 20 C 3.963427 0.159566 -0.688903 0
M  V30 21 C 4.147958 1.833666 1.074211 0
M  V30 22 C 4.755070 1.003968 0.112233 0
M  V30 23 F 2.188651 2.617523 2.183481 0
M  V30 24 H -1.784773 -3.902881 1.524764 0
M  V30 25 H -2.920099 -2.339304 -0.000552 0
M  V30 26 H 1.350232 -1.042560 2.165163 0
M  V30 27 H -2.717097 -1.434992 -3.643129 0
M  V30 28 H -1.661813 -2.051397 -2.373785 0
M  V30 29 H -3.430354 -2.172679 -2.208368 0
M  V30 30 H -3.314354 2.920359 -1.824516 0
M  V30 31 H -1.945318 1.728757 1.569160 0
M  V30 32 H -1.881358 3.203921 0.641455 0
M  V30 33 H 1.967706 -0.505239 -1.153196 0
M  V30 34 H 4.429418 -0.476839 -1.426777 0
M  V30 35 H 4.757447 2.477567 1.691023 0
M  V30 36 H 5.828110 1.014456 -0.009838 0
M  V30 END ATOM
M  V30 BEGIN BOND
M  V30 1 1 2 1
M  V30 2 2 3 2
M  V30 3 1 4 3
M  V30 4 2 5 4
M  V30 5 2 6 1
M  V30 6 1 6 5
M  V30 7 1 7 6
M  V30 8 1 8 4
M  V30 9 1 9 3
M  V30 10 1 10 9
M  V30 11 2 11 10
M  V30 12 1 12 10
M  V30 13 1 13 11
M  V30 14 1 14 9
M  V30 15 2 14 13
M  V30 16 1 15 14
M  V30 17 2 16 8
M  V30 18 1 16 15
M  V30 19 1 17 8
M  V30 20 2 18 17
M  V30 21 1 19 17
M  V30 22 1 20 18
M  V30 23 2 21 19
M  V30 24 2 22 20
M  V30 25 1 22 21
M  V30 26 1 23 19
M  V30 27 1 24 1
M  V30 28 1 25 2
M  V30 29 1 26 5
M  V30 30 1 27 12
M  V30 31 1 28 12
M  V30 32 1 29 12
M  V30 33 1 30 13
M  V30 34 1 31 15
M  V30 35 1 32 15
M  V30 36 1 33 18
M  V30 37 1 34 20
M  V30 38 1 35 21
M  V30 39 1 36 22
M  V30 END BOND
M  V30 END CTAB
M  END
>  <i_f3d_flags>  (1) 
0

>  <New_Or_Updated_From_Original_Merck_Dataset>  (1) 
0

>  <PRIMARY_SOM>  (1) 
12

>  <SECONDARY_SOM>  (1) 
15

>  <r_f3d_energy>  (1) 
32.648532000000003

>  <r_f3d_relative_energy>  (1) 
0

>  <r_user_macromodel_energy>  (1) 
72.423000000000002

>  <s_m_subgroup_title>  (1) 
midazolam

>  <s_m_subgroupid>  (1) 
1

>  <Citation>  (1) 
K.K. Kishore et al., Mol. Pharmacol., 2002, 61, 495-506

>  <ID>  (1) 
midazolam

$$$$
midazolam
     RDKit          3D

  0  0  0  0  0  0  0  0  0  0999 V3000
M  V30 BEGIN CTAB
M  V30 COUNTS 36 39 0 0 1
M  V30 BEGIN ATOM
M  V30 1 C -1.338146 -2.942671 -1.312206 0
M  V30 2 C -1.974155 -2.051339 -0.431455 0
M  V30 3 C -1.399092 -0.793548 -0.133723 0
M  V30 4 C -0.190323 -0.395915 -0.779484 0
M  V30 5 C 0.430865 -1.310162 -1.664188 0
M  V30 6 C -0.129810 -2.573327 -1.924634 0
M  V30 7 Cl 0.657385 -3.659564 -3.009064 0
M  V30 8 C 0.474125 0.937599 -0.583342 0
M  V30 9 N -2.081750 0.112116 0.718155 0
M  V30 10 C -2.650209 -0.205786 1.902427 0
M  V30 11 N -3.236032 0.853629 2.457427 0
M  V30 12 C -2.610510 -1.549113 2.563875 0
M  V30 13 C -2.979163 1.919762 1.594814 0
M  V30 14 C -2.232251 1.470577 0.532689 0
M  V30 15 C -1.590850 2.153262 -0.628083 0
M  V30 16 N -0.145877 2.057689 -0.526833 0
M  V30 17 C 1.949671 0.975357 -0.434220 0
M  V30 18 C 2.564416 0.144781 0.529332 0
M  V30 19 C 2.748864 1.822766 -1.239062 0
M  V30 20 C 3.963428 0.159561 0.688902 0
M  V30 21 C 4.147960 1.833664 -1.074208 0
M  V30 22 C 4.755072 1.003964 -0.112232 0
M  V30 23 F 2.188653 2.617523 -2.183476 0
M  V30 24 H -1.784775 -3.902882 -1.524762 0
M  V30 25 H -2.920100 -2.339303 0.000553 0
M  V30 26 H 1.350232 -1.042564 -2.165162 0
M  V30 27 H -2.717103 -1.434988 3.643128 0
M  V30 28 H -3.430360 -2.172674 2.208365 0
M  V30 29 H -1.661819 -2.051395 2.373785 0
M  V30 30 H -3.314352 2.920363 1.824512 0
M  V30 31 H -1.881354 3.203921 -0.641459 0
M  V30 32 H -1.945315 1.728755 -1.569162 0
M  V30 33 H 1.967707 -0.505244 1.153194 0
M  V30 34 H 4.429419 -0.476846 1.426775 0
M  V30 35 H 4.757449 2.477566 -1.691018 0
M  V30 36 H 5.828111 1.014452 0.009840 0
M  V30 END ATOM
M  V30 BEGIN BOND
M  V30 1 1 2 1
M  V30 2 2 3 2
M  V30 3 1 4 3
M  V30 4 2 5 4
M  V30 5 2 6 1
M  V30 6 1 6 5
M  V30 7 1 7 6
M  V30 8 1 8 4
M  V30 9 1 9 3
M  V30 10 1 10 9
M  V30 11 2 11 10
M  V30 12 1 12 10
M  V30 13 1 13 11
M  V30 14 1 14 9
M  V30 15 2 14 13
M  V30 16 1 15 14
M  V30 17 2 16 8
M  V30 18 1 16 15
M  V30 19 1 17 8
M  V30 20 2 18 17
M  V30 21 1 19 17
M  V30 22 1 20 18
M  V30 23 2 21 19
M  V30 24 2 22 20
M  V30 25 1 22 21
M  V30 26 1 23 19
M  V30 27 1 24 1
M  V30 28 1 25 2
M  V30 29 1 26 5
M  V30 30 1 27 12
M  V30 31 1 28 12
M  V30 32 1 29 12
M  V30 33 1 30 13
M  V30 34 1 31 15
M  V30 35 1 32 15
M  V30 36 1 33 18
M  V30 37 1 34 20
M  V30 38 1 35 21
M  V30 39 1 36 22
M  V30 END BOND
M  V30 END CTAB
M  END
>  <i_f3d_flags>  (2) 
0

>  <New_Or_Updated_From_Original_Merck_Dataset>  (2) 
0

>  <PRIMARY_SOM>  (2) 
12

>  <SECONDARY_SOM>  (2) 
15

>  <r_f3d_energy>  (2) 
32.648532000000003

>  <r_f3d_relative_energy>  (2) 
0

>  <r_user_macromodel_energy>  (2) 
72.423100000000005

>  <s_m_subgroupid>  (2) 
1

>  <Citation>  (2) 
K.K. Kishore et al., Mol. Pharmacol., 2002, 61, 495-506

>  <ID>  (2) 
midazolam

$$$$
